Version 4
SHEET 1 2788 680
WIRE 2032 -416 2032 -464
WIRE 2032 -416 1920 -416
WIRE 2144 -416 2032 -416
WIRE 1920 -400 1920 -416
WIRE 2144 -400 2144 -416
WIRE 2032 -384 2032 -416
WIRE 800 -304 736 -304
WIRE 928 -304 880 -304
WIRE 976 -304 928 -304
WIRE 1104 -304 1056 -304
WIRE 1232 -304 1184 -304
WIRE 2144 -304 2144 -320
WIRE 2240 -304 2144 -304
WIRE 2304 -304 2240 -304
WIRE 736 -288 736 -304
WIRE 2144 -288 2144 -304
WIRE 2240 -288 2240 -304
WIRE 1472 -224 1360 -224
WIRE 928 -208 928 -304
WIRE 992 -208 928 -208
WIRE 1232 -208 1232 -304
WIRE 1232 -208 1056 -208
WIRE 1472 -208 1472 -224
WIRE 1360 -192 1360 -224
WIRE 464 -160 464 -192
WIRE 464 -160 384 -160
WIRE 1568 -160 1536 -160
WIRE 1712 -160 1632 -160
WIRE 384 -144 384 -160
WIRE 464 -128 464 -160
WIRE 928 -112 928 -208
WIRE 992 -112 928 -112
WIRE 1232 -112 1232 -208
WIRE 1232 -112 1120 -112
WIRE 1472 -96 1472 -128
WIRE 1440 -64 1424 -64
WIRE 1536 -64 1536 -160
WIRE 1536 -64 1504 -64
WIRE 1568 -64 1536 -64
WIRE 1712 -64 1712 -160
WIRE 1712 -64 1648 -64
WIRE 576 -16 576 -48
WIRE 928 -16 928 -112
WIRE 1056 -16 928 -16
WIRE 1232 -16 1232 -112
WIRE 1232 -16 1120 -16
WIRE 240 32 112 32
WIRE 272 32 240 32
WIRE 352 32 336 32
WIRE 464 32 464 -48
WIRE 464 32 432 32
WIRE 512 32 464 32
WIRE 240 64 240 32
WIRE 464 64 464 32
WIRE 1536 64 1536 -64
WIRE 1584 64 1536 64
WIRE 928 80 928 -16
WIRE 976 80 928 80
WIRE 1712 80 1712 -64
WIRE 1712 80 1648 80
WIRE 1760 80 1712 80
WIRE 1872 80 1824 80
WIRE 1984 80 1952 80
WIRE 1232 96 1232 -16
WIRE 1232 96 1040 96
WIRE 1312 96 1232 96
WIRE 1424 96 1424 -64
WIRE 1424 96 1392 96
WIRE 1584 96 1424 96
WIRE 112 112 112 32
WIRE 576 112 576 80
WIRE 736 112 576 112
WIRE 896 112 800 112
WIRE 976 112 896 112
WIRE 576 144 576 112
WIRE 896 144 896 112
WIRE 1424 144 1424 96
WIRE 1984 144 1984 80
WIRE 2112 176 2016 176
WIRE 1984 240 1984 208
FLAG 112 192 0
FLAG 2240 -224 0
FLAG 2144 -208 0
FLAG 1920 -336 0
FLAG 2032 -304 0
FLAG 2032 -464 V+
FLAG 2304 -304 Vref
FLAG 240 144 0
FLAG 576 224 0
FLAG 576 -48 V+
FLAG 1008 128 0
FLAG 1008 64 V+
FLAG 1984 240 0
FLAG 896 224 Vref
FLAG 464 144 0
FLAG 384 -80 0
FLAG 464 -272 V+
FLAG 736 -224 0
FLAG 1424 208 0
FLAG 1616 112 0
FLAG 1616 48 V+
FLAG 1360 -128 0
SYMBOL voltage 112 96 R0
WINDOW 123 24 124 Left 2
WINDOW 39 0 0 Left 2
SYMATTR Value2 AC 1
SYMATTR InstName V1
SYMATTR Value SINE(0 1 1000)
SYMBOL res 224 48 R0
SYMATTR InstName R1
SYMATTR Value 1Meg
SYMBOL cap 336 16 R90
WINDOW 0 0 32 VBottom 2
WINDOW 3 32 32 VTop 2
SYMATTR InstName C1
SYMATTR Value 47n
SYMBOL res 448 16 R90
WINDOW 0 0 56 VBottom 2
WINDOW 3 32 56 VTop 2
SYMATTR InstName R2
SYMATTR Value 10k
SYMBOL res 448 48 R0
SYMATTR InstName R3
SYMATTR Value 2.2Meg
SYMBOL npn 512 -16 R0
SYMATTR InstName Q2
SYMATTR Value 2N3904
SYMBOL res 560 128 R0
SYMATTR InstName R4
SYMATTR Value 22k
SYMBOL EXTRA\\AudioOpamp\\TI\\TL072_TI 1008 96 R0
SYMATTR InstName U1
SYMBOL diode 1056 -128 R90
WINDOW 0 0 32 VBottom 2
WINDOW 3 32 32 VTop 2
SYMATTR InstName D1
SYMATTR Value 1N4148
SYMBOL diode 992 -192 R270
WINDOW 0 32 32 VTop 2
WINDOW 3 0 32 VBottom 2
SYMATTR InstName D2
SYMATTR Value 1N4148
SYMBOL res 1072 -320 R90
WINDOW 0 0 56 VBottom 2
WINDOW 3 32 56 VTop 2
SYMATTR InstName R6
SYMATTR Value 33k
SYMBOL pot 1968 144 R0
WINDOW 3 -80 23 Left 2
WINDOW 123 -71 57 Left 2
SYMATTR Value2 W=0.5
SYMATTR InstName U8
SYMBOL voltage 2032 -400 R0
WINDOW 123 0 0 Left 2
WINDOW 39 0 0 Left 2
SYMATTR InstName V2
SYMATTR Value 9
SYMBOL res 2128 -416 R0
SYMATTR InstName R23
SYMATTR Value 10k
SYMBOL res 2128 -304 R0
SYMATTR InstName R24
SYMATTR Value 10k
SYMBOL cap 2224 -288 R0
SYMATTR InstName C15
SYMATTR Value 220µ
SYMBOL cap 1904 -400 R0
SYMATTR InstName C16
SYMATTR Value 220µ
SYMBOL diode 1120 -128 R90
WINDOW 0 0 32 VBottom 2
WINDOW 3 32 32 VTop 2
SYMATTR InstName D3
SYMATTR Value 1N4148
SYMBOL cap 1120 -32 R90
WINDOW 0 0 32 VBottom 2
WINDOW 3 32 32 VTop 2
SYMATTR InstName C3
SYMATTR Value 150p
SYMBOL res 880 128 R0
SYMATTR InstName R5
SYMATTR Value 100k
SYMBOL cap 800 96 R90
WINDOW 0 0 32 VBottom 2
WINDOW 3 32 32 VTop 2
SYMATTR InstName C2
SYMATTR Value 15n
SYMBOL res 448 -144 R0
SYMATTR InstName R7
SYMATTR Value 1.8Meg
SYMBOL res 448 -288 R0
SYMATTR InstName R8
SYMATTR Value 100k
SYMBOL cap 400 -80 R180
WINDOW 0 24 56 Left 2
WINDOW 3 24 8 Left 2
SYMATTR InstName C5
SYMATTR Value 47µ
SYMBOL res 896 -320 R90
WINDOW 0 0 56 VBottom 2
WINDOW 3 32 56 VTop 2
SYMATTR InstName R9
SYMATTR Value 4.7k
SYMBOL cap 752 -224 R180
WINDOW 0 24 56 Left 2
WINDOW 3 24 8 Left 2
SYMATTR InstName C6
SYMATTR Value 47n
SYMBOL cap 1824 64 R90
WINDOW 0 0 32 VBottom 2
WINDOW 3 32 32 VTop 2
SYMATTR InstName C7
SYMATTR Value 3.3µ
SYMBOL res 1968 64 R90
WINDOW 0 0 56 VBottom 2
WINDOW 3 32 56 VTop 2
SYMATTR InstName R10
SYMATTR Value 2.2k
SYMBOL res 1408 80 R90
WINDOW 0 0 56 VBottom 2
WINDOW 3 32 56 VTop 2
SYMATTR InstName R11
SYMATTR Value 10k
SYMBOL cap 1440 208 R180
WINDOW 0 24 56 Left 2
WINDOW 3 24 8 Left 2
SYMATTR InstName C4
SYMATTR Value 47n
SYMBOL EXTRA\\AudioOpamp\\TI\\TL072_TI 1616 80 R0
SYMATTR InstName U3
SYMBOL pot 1440 -48 R270
WINDOW 3 -93 23 Left 2
WINDOW 123 -71 57 Left 2
SYMATTR Value R=20k
SYMATTR Value2 W=0.5
SYMATTR InstName U4
SYMBOL res 1664 -80 R90
WINDOW 0 0 56 VBottom 2
WINDOW 3 32 56 VTop 2
SYMATTR InstName R12
SYMATTR Value 10k
SYMBOL cap 1632 -176 R90
WINDOW 0 0 32 VBottom 2
WINDOW 3 32 32 VTop 2
SYMATTR InstName C8
SYMATTR Value 10n
SYMBOL res 1488 -112 R180
WINDOW 0 36 76 Left 2
WINDOW 3 36 40 Left 2
SYMATTR InstName R13
SYMATTR Value 470
SYMBOL cap 1376 -128 R180
WINDOW 0 24 56 Left 2
WINDOW 3 24 8 Left 2
SYMATTR InstName C9
SYMATTR Value 47n
SYMBOL res 1200 -320 R90
WINDOW 0 0 56 VBottom 2
WINDOW 3 32 56 VTop 2
SYMATTR InstName R14
SYMATTR Value 500k
TEXT 1288 -488 Left 2 !;tran 20m
TEXT 1288 -448 Left 2 !.ac dec 500 10 10000
TEXT 1296 -360 Left 2 !;.step param W 0 1 0.2
