Version 4
SHEET 1 3124 680
WIRE 1120 -560 1072 -560
WIRE 1200 -560 1120 -560
WIRE 1264 -560 1200 -560
WIRE 1264 -448 1264 -480
WIRE 1312 -448 1264 -448
WIRE 1392 -448 1392 -512
WIRE 1392 -448 1312 -448
WIRE 1424 -448 1392 -448
WIRE 1536 -448 1504 -448
WIRE 1616 -448 1536 -448
WIRE 1312 -432 1312 -448
WIRE 1536 -432 1536 -448
WIRE 2528 -416 2448 -416
WIRE 2624 -416 2544 -416
WIRE 1264 -400 1264 -448
WIRE 2448 -368 2448 -416
WIRE 2624 -368 2624 -416
WIRE 2176 -272 2080 -272
WIRE 2272 -272 2176 -272
WIRE 2384 -272 2272 -272
WIRE 2432 -272 2432 -304
WIRE 2432 -272 2384 -272
WIRE 2464 -272 2464 -304
WIRE 2528 -272 2528 -416
WIRE 2528 -272 2464 -272
WIRE 2544 -272 2544 -416
WIRE 2608 -272 2608 -304
WIRE 2608 -272 2544 -272
WIRE 2640 -272 2640 -304
WIRE 2688 -272 2640 -272
WIRE 2768 -272 2688 -272
WIRE 2080 -256 2080 -272
WIRE 2176 -256 2176 -272
WIRE 2272 -256 2272 -272
WIRE 2768 -256 2768 -272
WIRE 672 -240 656 -240
WIRE 768 -240 752 -240
WIRE 832 -240 768 -240
WIRE 944 -240 912 -240
WIRE 1040 -240 1008 -240
WIRE 2384 -240 2384 -272
WIRE 2464 -240 2464 -272
WIRE 2608 -240 2608 -272
WIRE 2688 -240 2688 -272
WIRE 656 -224 656 -240
WIRE 1040 -208 1040 -240
WIRE 2384 -144 2384 -176
WIRE 2464 -144 2464 -160
WIRE 2464 -144 2384 -144
WIRE 2608 -144 2608 -160
WIRE 2688 -144 2688 -176
WIRE 2688 -144 2608 -144
WIRE 1328 -128 1296 -128
WIRE 1424 -128 1408 -128
WIRE 2464 -128 2464 -144
WIRE 768 -96 768 -240
WIRE 848 -96 768 -96
WIRE 976 -96 976 -208
WIRE 976 -96 912 -96
WIRE 480 -80 480 -112
WIRE 480 -80 416 -80
WIRE 2608 -80 2608 -144
WIRE 416 -48 416 -80
WIRE 480 -48 480 -80
WIRE 1296 -48 1296 -128
WIRE 1328 -48 1296 -48
WIRE 1424 -48 1424 -128
WIRE 1424 -48 1392 -48
WIRE 1456 -48 1424 -48
WIRE 1552 -48 1520 -48
WIRE 1664 -48 1632 -48
WIRE 2464 -32 2464 -48
WIRE 2176 0 2048 0
WIRE 768 16 768 -96
WIRE 816 16 768 16
WIRE 976 32 976 -96
WIRE 976 32 880 32
WIRE 416 48 416 16
WIRE 480 48 480 32
WIRE 480 48 416 48
WIRE 544 48 480 48
WIRE 624 48 608 48
WIRE 768 48 704 48
WIRE 816 48 768 48
WIRE 1040 48 1040 -128
WIRE 1104 48 1040 48
WIRE 1184 48 1168 48
WIRE 1296 48 1296 -48
WIRE 1296 48 1264 48
WIRE 1328 48 1296 48
WIRE 480 64 480 48
WIRE 1424 64 1424 -48
WIRE 1424 64 1392 64
WIRE 1456 64 1424 64
WIRE 1552 64 1536 64
WIRE 1568 64 1552 64
WIRE 1664 64 1664 -48
WIRE 1664 64 1648 64
WIRE 1680 64 1664 64
WIRE 1776 64 1760 64
WIRE 1888 64 1776 64
WIRE 2048 64 2048 0
WIRE 2080 64 2048 64
WIRE 768 80 768 48
WIRE 1040 80 1040 48
WIRE 1328 80 1312 80
WIRE 1776 80 1776 64
WIRE 2176 80 2176 0
WIRE 2176 80 2144 80
WIRE 2208 80 2176 80
WIRE 2336 80 2288 80
WIRE 2400 80 2336 80
WIRE 2512 80 2400 80
WIRE 2720 80 2512 80
WIRE 1312 96 1312 80
WIRE 2000 96 1920 96
WIRE 2080 96 2000 96
WIRE 2512 96 2512 80
WIRE 2832 96 2784 96
WIRE 2880 96 2832 96
WIRE 2960 96 2944 96
WIRE 2992 96 2960 96
WIRE 3120 96 3072 96
WIRE 1552 112 1552 64
WIRE 2000 112 2000 96
WIRE 2720 112 2656 112
WIRE 208 128 144 128
WIRE 256 128 208 128
WIRE 336 128 320 128
WIRE 352 128 336 128
WIRE 208 144 208 128
WIRE 336 144 336 128
WIRE 2960 144 2960 96
WIRE 144 176 144 128
WIRE 480 176 480 160
WIRE 496 176 480 176
WIRE 576 176 560 176
WIRE 1040 176 1040 144
WIRE 2336 176 2336 80
WIRE 2400 176 2400 80
WIRE 480 192 480 176
WIRE 576 192 576 176
WIRE 1776 192 1776 160
WIRE 2176 208 2144 208
WIRE 2304 208 2256 208
WIRE 2464 208 2464 32
WIRE 2464 208 2432 208
WIRE 2608 208 2608 -16
WIRE 2608 208 2544 208
WIRE 2656 240 2656 112
WIRE 2720 240 2656 240
WIRE 2832 240 2832 96
WIRE 2832 240 2784 240
WIRE 2144 256 2144 208
WIRE 2336 336 2336 240
WIRE 2400 336 2400 240
WIRE 2400 336 2336 336
WIRE 2512 336 2512 320
WIRE 2512 336 2400 336
WIRE 2656 336 2656 240
WIRE 2656 336 2512 336
WIRE 2704 336 2656 336
WIRE 2832 336 2832 240
WIRE 2832 336 2784 336
FLAG 144 256 0
FLAG 208 224 0
FLAG 1264 -320 0
FLAG 1312 -368 0
FLAG 1536 -368 0
FLAG 1616 -448 VA
FLAG 1392 -512 V+
FLAG 336 224 0
FLAG 1072 -560 Vb
FLAG 1120 -480 0
FLAG 1200 -496 0
FLAG 480 272 0
FLAG 576 272 0
FLAG 480 -112 VA
FLAG 768 160 Vb
FLAG 848 0 V+
FLAG 848 64 0
FLAG 656 -160 0
FLAG 1040 256 0
FLAG 1360 32 V+
FLAG 1360 96 0
FLAG 1312 96 Vb
FLAG 1552 176 0
FLAG 1776 256 0
FLAG 1888 128 Vb
FLAG 2112 48 V+
FLAG 2112 112 0
FLAG 2000 192 Vb
FLAG 2144 320 0
FLAG 2752 128 V+
FLAG 2752 64 0
FLAG 2960 224 0
FLAG 2480 -336 V+
FLAG 2416 -336 0
FLAG 2272 -176 Vb
FLAG 2080 -176 Vb
FLAG 2592 -336 V+
FLAG 2656 -336 0
FLAG 2768 -176 Vb
SYMBOL voltage 144 160 R0
WINDOW 0 -80 16 Left 2
WINDOW 3 -221 80 Left 2
WINDOW 123 -108 110 Left 2
WINDOW 39 0 0 Left 2
SYMATTR InstName V1
SYMATTR Value SINE(0 600m 250)
SYMATTR Value2 AC 1
SYMBOL res 192 128 R0
SYMATTR InstName R1
SYMATTR Value 2meg
SYMBOL cap 1296 -432 R0
SYMATTR InstName C12
SYMATTR Value 100
SYMBOL res 1520 -464 R90
WINDOW 0 0 56 VBottom 2
WINDOW 3 32 56 VTop 2
SYMATTR InstName R2
SYMATTR Value 1k
SYMBOL cap 1520 -432 R0
SYMATTR InstName C1
SYMATTR Value 100
SYMBOL njf 432 64 R0
SYMATTR InstName J1
SYMATTR Value KP303G
SYMBOL cap 320 112 R90
WINDOW 0 0 32 VBottom 2
WINDOW 3 32 32 VTop 2
SYMATTR InstName C2
SYMATTR Value 10n
SYMBOL res 320 128 R0
SYMATTR InstName R3
SYMATTR Value 2Meg
SYMBOL voltage 1264 -416 R0
WINDOW 123 0 0 Left 2
WINDOW 39 0 0 Left 2
SYMATTR InstName V2
SYMATTR Value 9
SYMBOL res 1248 -576 R0
SYMATTR InstName R4
SYMATTR Value 10k
SYMBOL res 1104 -576 R0
SYMATTR InstName R5
SYMATTR Value 10k
SYMBOL cap 1184 -560 R0
SYMATTR InstName C3
SYMATTR Value 47
SYMBOL res 464 176 R0
SYMATTR InstName R6
SYMATTR Value 5.6k
SYMBOL res 560 176 R0
SYMATTR InstName R7
SYMATTR Value 1.5k
SYMBOL res 464 -64 R0
SYMATTR InstName R8
SYMATTR Value 10k
SYMBOL cap 400 -48 R0
SYMATTR InstName C5
SYMATTR Value 3.3n
SYMBOL cap 608 32 R90
WINDOW 0 0 32 VBottom 2
WINDOW 3 32 32 VTop 2
SYMATTR InstName C6
SYMATTR Value 10n
SYMBOL res 720 32 R90
WINDOW 0 0 56 VBottom 2
WINDOW 3 32 56 VTop 2
SYMATTR InstName R9
SYMATTR Value 10k
SYMBOL res 752 64 R0
SYMATTR InstName R10
SYMATTR Value 300k
SYMBOL cap 912 -112 R90
WINDOW 0 0 32 VBottom 2
WINDOW 3 32 32 VTop 2
SYMATTR InstName C7
SYMATTR Value 750p
SYMBOL pot 1008 -256 R90
SYMATTR InstName U2
SYMATTR Value R=100k
SYMATTR Value2 W=0.5
SYMBOL res 928 -256 R90
WINDOW 0 0 56 VBottom 2
WINDOW 3 32 56 VTop 2
SYMATTR InstName R11
SYMATTR Value 10k
SYMBOL res 768 -256 R90
WINDOW 0 0 56 VBottom 2
WINDOW 3 32 56 VTop 2
SYMATTR InstName R12
SYMATTR Value 3k
SYMBOL cap 672 -160 R180
WINDOW 0 24 56 Left 2
WINDOW 3 24 8 Left 2
SYMATTR InstName C9
SYMATTR Value 100n
SYMBOL res 1024 -224 R0
SYMATTR InstName R13
SYMATTR Value 10k
SYMBOL cap 1024 80 R0
SYMATTR InstName C10
SYMATTR Value 47
SYMBOL res 1024 160 R0
SYMATTR InstName R14
SYMATTR Value 200k
SYMBOL cap 1168 32 R90
WINDOW 0 0 32 VBottom 2
WINDOW 3 32 32 VTop 2
SYMATTR InstName C11
SYMATTR Value 22n
SYMBOL res 1280 32 R90
WINDOW 0 0 56 VBottom 2
WINDOW 3 32 56 VTop 2
SYMATTR InstName R15
SYMATTR Value 5.6k
SYMBOL cap 1392 -64 R90
WINDOW 0 0 32 VBottom 2
WINDOW 3 32 32 VTop 2
SYMATTR InstName C13
SYMATTR Value 120p
SYMBOL res 1424 -144 R90
WINDOW 0 0 56 VBottom 2
WINDOW 3 32 56 VTop 2
SYMATTR InstName R16
SYMATTR Value 1Meg
SYMBOL cap 1520 -64 R90
WINDOW 0 0 32 VBottom 2
WINDOW 3 32 32 VTop 2
SYMATTR InstName C14
SYMATTR Value 15n
SYMBOL res 1648 -64 R90
WINDOW 0 0 56 VBottom 2
WINDOW 3 32 56 VTop 2
SYMATTR InstName R17
SYMATTR Value 10k
SYMBOL res 1552 48 R90
WINDOW 0 0 56 VBottom 2
WINDOW 3 32 56 VTop 2
SYMATTR InstName R18
SYMATTR Value 10k
SYMBOL res 1664 48 R90
WINDOW 0 0 56 VBottom 2
WINDOW 3 32 56 VTop 2
SYMATTR InstName R19
SYMATTR Value 10k
SYMBOL cap 1536 112 R0
SYMATTR InstName C15
SYMATTR Value 68n
SYMBOL res 1776 48 R90
WINDOW 0 0 56 VBottom 2
WINDOW 3 32 56 VTop 2
SYMATTR InstName R20
SYMATTR Value 100k
SYMBOL res 1760 64 R0
SYMATTR InstName R21
SYMATTR Value 100k
SYMBOL cap 1760 192 R0
SYMATTR InstName C16
SYMATTR Value 1.5n
SYMBOL pot 1872 64 R0
SYMATTR InstName U4
SYMATTR Value R=100k
SYMATTR Value2 W=0.5
SYMBOL EXTRA\\AudioOpamp\\TI\\TL072_TI 2112 80 R0
SYMATTR InstName U5
SYMBOL res 1984 96 R0
SYMATTR InstName R22
SYMATTR Value 2Meg
SYMBOL res 2304 64 R90
WINDOW 0 0 56 VBottom 2
WINDOW 3 32 56 VTop 2
SYMATTR InstName R23
SYMATTR Value 10k
SYMBOL pot 2352 240 R180
SYMATTR InstName U6
SYMATTR Value R=20k
SYMATTR Value2 W=0.5
SYMBOL res 2272 192 R90
WINDOW 0 0 56 VBottom 2
WINDOW 3 32 56 VTop 2
SYMATTR InstName R24
SYMATTR Value 3k
SYMBOL cap 2128 256 R0
SYMATTR InstName C17
SYMATTR Value 10n
SYMBOL pot 2384 176 R0
SYMATTR InstName U7
SYMATTR Value R=20k
SYMATTR Value2 W=0.5
SYMBOL pot 2496 176 R0
SYMATTR InstName U8
SYMATTR Value R=20k
SYMATTR Value2 W=0.5
SYMBOL res 2496 80 R0
SYMATTR InstName R25
SYMATTR Value 1.5k
SYMBOL res 2496 224 R0
SYMATTR InstName R26
SYMATTR Value 1.5k
SYMBOL EXTRA\\AudioOpamp\\TI\\TL072_TI 2752 96 M180
SYMATTR InstName U9
SYMBOL cap 2784 224 R90
WINDOW 0 0 32 VBottom 2
WINDOW 3 32 32 VTop 2
SYMATTR InstName C18
SYMATTR Value 1n
SYMBOL res 2800 320 R90
WINDOW 0 0 56 VBottom 2
WINDOW 3 32 56 VTop 2
SYMATTR InstName R27
SYMATTR Value 10k
SYMBOL cap 2944 80 R90
WINDOW 0 0 32 VBottom 2
WINDOW 3 32 32 VTop 2
SYMATTR InstName C19
SYMATTR Value 220n
SYMBOL res 2944 128 R0
SYMATTR InstName R28
SYMATTR Value 1Meg
SYMBOL res 3088 80 R90
WINDOW 0 0 56 VBottom 2
WINDOW 3 32 56 VTop 2
SYMATTR InstName R29
SYMATTR Value 1k
SYMBOL cap 2448 -32 R0
SYMATTR InstName C20
SYMATTR Value 22n
SYMBOL res 2448 -144 M180
WINDOW 0 36 76 Left 2
WINDOW 3 36 40 Left 2
SYMATTR InstName R31
SYMATTR Value 470
SYMBOL res 2448 -32 M180
WINDOW 0 36 76 Left 2
WINDOW 3 36 40 Left 2
SYMATTR InstName R30
SYMATTR Value 5.6k
SYMBOL cap 2368 -240 R0
SYMATTR InstName C21
SYMATTR Value 10n
SYMBOL EXTRA\\AudioOpamp\\TI\\TL072_TI 2448 -336 M270
SYMATTR InstName U10
SYMBOL res 2256 -272 R0
SYMATTR InstName R32
SYMATTR Value 1Meg
SYMBOL res 2160 -272 R0
SYMATTR InstName R33
SYMATTR Value 300k
SYMBOL res 2064 -272 R0
SYMATTR InstName R34
SYMATTR Value 27k
SYMBOL cap 2592 -80 R0
SYMATTR InstName C22
SYMATTR Value 470n
SYMBOL res 2592 -144 M180
WINDOW 0 36 76 Left 2
WINDOW 3 36 40 Left 2
SYMATTR InstName R35
SYMATTR Value 330
SYMBOL cap 2672 -240 R0
SYMATTR InstName C23
SYMATTR Value 100n
SYMBOL EXTRA\\AudioOpamp\\TI\\TL072_TI 2624 -336 R270
SYMATTR InstName U11
SYMBOL res 2752 -272 R0
SYMATTR InstName R36
SYMATTR Value 300k
SYMBOL MyLib\\tlc2272 848 -32 R0
SYMATTR InstName U1
SYMBOL MyLib\\tlc2272 1360 0 R0
SYMATTR InstName U3
SYMBOL res 448 112 R90
WINDOW 0 0 56 VBottom 2
WINDOW 3 32 56 VTop 2
SYMATTR InstName R37
SYMATTR Value 27k
SYMBOL cap 560 160 R90
WINDOW 0 0 32 VBottom 2
WINDOW 3 32 32 VTop 2
SYMATTR InstName C4
SYMATTR Value 2.2
TEXT -40 -24 Left 2 !;tran 0 30ms 0 1u
TEXT -32 16 Left 2 !.ac dec 10000 20 10000
TEXT 1408 -208 Left 2 !;.step param W list 0.05, 0.25, 0.5, 0.75, 0.95
