Version 4
SHEET 1 2148 680
WIRE 1664 -560 1600 -560
WIRE 1824 -560 1664 -560
WIRE 1888 -560 1824 -560
WIRE 1664 -544 1664 -560
WIRE 1888 -544 1888 -560
WIRE 544 -528 544 -576
WIRE 1664 -464 1600 -464
WIRE 1728 -464 1664 -464
WIRE 1728 -448 1728 -464
WIRE 1824 -448 1824 -560
WIRE 1664 -432 1664 -464
WIRE 544 -416 544 -448
WIRE 832 -368 720 -368
WIRE 1056 -368 1008 -368
WIRE 1152 -368 1120 -368
WIRE 720 -336 720 -368
WIRE 544 -304 544 -352
WIRE 576 -304 544 -304
WIRE 688 -304 656 -304
WIRE 832 -304 832 -368
WIRE 832 -304 752 -304
WIRE 1088 -240 1088 -336
WIRE 1088 -224 1088 -240
WIRE 544 -208 544 -304
WIRE 656 -208 544 -208
WIRE 688 -208 656 -208
WIRE 832 -208 832 -304
WIRE 832 -208 752 -208
WIRE 1520 -176 1520 -240
WIRE 656 -112 656 -208
WIRE 688 -112 656 -112
WIRE 832 -112 832 -208
WIRE 832 -112 784 -112
WIRE 1600 -112 1600 -144
WIRE 1424 -96 1424 -224
WIRE 416 -64 416 -176
WIRE 1152 -64 1152 -368
WIRE 1152 -64 1040 -64
WIRE 1168 -64 1152 -64
WIRE 1264 -64 1248 -64
WIRE 1520 -64 1520 -96
WIRE 1536 -64 1520 -64
WIRE 512 -16 512 -64
WIRE 656 -16 656 -112
WIRE 704 -16 656 -16
WIRE 832 -16 832 -112
WIRE 832 -16 768 -16
WIRE 1104 -16 1104 -32
WIRE 1040 0 1040 -64
WIRE 1072 0 1040 0
WIRE 1600 0 1600 -16
WIRE 1616 0 1600 0
WIRE 1792 0 1760 0
WIRE 1872 0 1792 0
WIRE 1264 16 1264 -64
WIRE 1264 16 1136 16
WIRE 1296 16 1264 16
WIRE 1424 16 1424 -32
WIRE 1424 16 1408 16
WIRE 224 32 128 32
WIRE 304 32 288 32
WIRE 416 32 416 16
WIRE 416 32 384 32
WIRE 448 32 416 32
WIRE 832 32 832 -16
WIRE 848 32 832 32
WIRE 944 32 928 32
WIRE 1008 32 1008 -368
WIRE 1008 32 944 32
WIRE 1072 32 1008 32
WIRE 1792 32 1792 0
WIRE 944 48 944 32
WIRE 1600 48 1600 0
WIRE 656 96 656 -16
WIRE 704 96 656 96
WIRE 128 112 128 32
WIRE 832 112 832 32
WIRE 832 112 768 112
WIRE 512 128 512 80
WIRE 640 128 576 128
WIRE 704 128 640 128
WIRE 640 144 640 128
WIRE 512 160 512 128
WIRE 640 288 640 224
FLAG 128 192 0
FLAG 512 240 0
FLAG 736 144 0
FLAG 1104 48 0
FLAG 1088 -96 0
FLAG 1792 112 0
FLAG 1824 -368 0
FLAG 1664 -352 0
FLAG 1728 -384 0
FLAG 1888 -480 0
FLAG 944 112 0
FLAG 1600 -560 V+
FLAG 1600 -464 Vref
FLAG 1520 -240 Vref
FLAG 1424 -224 Vref
FLAG 544 -576 Vref
FLAG 640 288 Vref
FLAG 416 -176 Vref
FLAG 512 -64 V+
FLAG 736 80 V+
FLAG 1104 -32 V+
FLAG 1600 -144 V+
SYMBOL voltage 128 96 R0
WINDOW 123 24 132 Left 2
WINDOW 39 0 0 Left 2
SYMATTR Value2 AC 1
SYMATTR InstName V1
SYMATTR Value SINE(0 1 1000)
SYMBOL voltage 1824 -464 R0
WINDOW 123 0 0 Left 2
WINDOW 39 0 0 Left 2
SYMATTR InstName V2
SYMATTR Value 9
SYMBOL cap 288 16 R90
WINDOW 0 0 16 VBottom 2
WINDOW 3 32 16 VTop 2
SYMATTR InstName C1
SYMATTR Value 27n
SYMBOL res 400 16 R90
WINDOW 0 8 32 VBottom 2
WINDOW 3 24 32 VTop 2
SYMATTR InstName R2
SYMATTR Value 1k
SYMBOL res 400 -80 R0
SYMATTR InstName R3
SYMATTR Value 510k
SYMBOL npn 448 -16 R0
SYMATTR InstName Q1
SYMATTR Value 2N3904
SYMBOL res 496 144 R0
SYMATTR InstName R4
SYMATTR Value 10k
SYMBOL cap 576 112 R90
WINDOW 0 0 16 VBottom 2
WINDOW 3 32 16 VTop 2
SYMATTR InstName C2
SYMATTR Value 1µ
SYMBOL res 624 128 R0
SYMATTR InstName R5
SYMATTR Value 10k
SYMBOL EXTRA\\AudioOpamp\\TI\\TL072_TI 736 112 R0
SYMATTR InstName U1
SYMBOL EXTRA\\AudioOpamp\\TI\\TL072_TI 1104 16 R0
SYMATTR InstName U2
SYMBOL diode 704 0 R270
WINDOW 0 28 16 VTop 2
WINDOW 3 4 16 VBottom 2
SYMATTR InstName D1
SYMATTR Value 1N4148
SYMBOL diode 784 -128 R90
WINDOW 0 4 16 VBottom 2
WINDOW 3 28 16 VTop 2
SYMATTR InstName D2
SYMATTR Value 1N4148
SYMBOL diode 720 -128 R90
WINDOW 0 4 16 VBottom 2
WINDOW 3 28 16 VTop 2
SYMATTR InstName D3
SYMATTR Value 1N4148
SYMBOL cap 752 -224 R90
WINDOW 0 0 16 VBottom 2
WINDOW 3 32 16 VTop 2
SYMATTR InstName C3
SYMATTR Value 51p
SYMBOL res 672 -320 R90
WINDOW 0 8 32 VBottom 2
WINDOW 3 24 32 VTop 2
SYMATTR InstName R6
SYMATTR Value 51k
SYMBOL cap 528 -416 R0
SYMATTR InstName C4
SYMATTR Value 47n
SYMBOL res 528 -544 R0
SYMATTR InstName R7
SYMATTR Value 4.7k
SYMBOL res 944 16 R90
WINDOW 0 8 32 VBottom 2
WINDOW 3 24 32 VTop 2
SYMATTR InstName R8
SYMATTR Value 1k
SYMBOL cap 928 48 R0
SYMATTR InstName C5
SYMATTR Value 220n
SYMBOL cap 1072 -240 R0
SYMATTR InstName C6
SYMATTR Value 220n
SYMBOL res 1072 -192 R0
SYMATTR InstName R10
SYMATTR Value 220
SYMBOL res 1264 -80 R90
WINDOW 0 8 32 VBottom 2
WINDOW 3 24 32 VTop 2
SYMATTR InstName R11
SYMATTR Value 1k
SYMBOL cap 1328 0 R90
WINDOW 0 0 16 VBottom 2
WINDOW 3 32 16 VTop 2
SYMATTR InstName C7
SYMATTR Value 470n
SYMBOL res 1424 0 R90
WINDOW 0 8 32 VBottom 2
WINDOW 3 24 32 VTop 2
SYMATTR InstName R12
SYMATTR Value 1k
SYMBOL cap 1520 -80 R90
WINDOW 0 0 16 VBottom 2
WINDOW 3 32 16 VTop 2
SYMATTR InstName C8
SYMATTR Value 100n
SYMBOL res 1504 -192 R0
SYMATTR InstName R13
SYMATTR Value 510k
SYMBOL res 1584 32 R0
SYMATTR InstName R14
SYMATTR Value 10k
SYMBOL res 1712 -16 R90
WINDOW 0 8 32 VBottom 2
WINDOW 3 24 32 VTop 2
SYMATTR InstName R15
SYMATTR Value 470
SYMBOL cap 1760 -16 R90
WINDOW 0 0 16 VBottom 2
WINDOW 3 32 16 VTop 2
SYMATTR InstName C9
SYMATTR Value 2.2µ
SYMBOL res 1776 16 R0
SYMATTR InstName R16
SYMATTR Value 100k
SYMBOL res 1648 -560 R0
SYMATTR InstName R17
SYMATTR Value 10k
SYMBOL res 1648 -448 R0
SYMATTR InstName R18
SYMATTR Value 10k
SYMBOL cap 1712 -448 R0
SYMATTR InstName C10
SYMATTR Value 220µ
SYMBOL cap 1872 -544 R0
SYMATTR InstName C11
SYMATTR Value 220µ
SYMBOL npn 1536 -112 R0
SYMATTR InstName Q2
SYMATTR Value 2N3904
SYMBOL pot 688 -288 R270
SYMATTR InstName U3
SYMATTR Value R=1Meg
SYMATTR Value2 W=0.5
SYMBOL pot 1120 -384 R90
SYMATTR InstName U4
SYMATTR Value R=100k
SYMATTR Value2 W=0.5
SYMBOL pot 1408 -96 R0
WINDOW 3 -83 -12 Left 2
WINDOW 123 -72 25 Left 2
SYMATTR Value R=100k
SYMATTR Value2 W=0.5
SYMATTR InstName U5
TEXT 992 -576 Left 2 !;tran 0 10 1u 1u
TEXT 992 -544 Left 2 !.ac dec 500 70 5k
