Version 4
SHEET 1 2772 1124
WIRE 1408 -16 1312 -16
WIRE 1648 -16 1408 -16
WIRE 1888 -16 1648 -16
WIRE 1408 0 1408 -16
WIRE 1648 0 1648 -16
WIRE 1888 0 1888 -16
WIRE 720 80 720 16
WIRE 1056 96 1040 96
WIRE 1104 96 1056 96
WIRE 1200 96 1168 96
WIRE 1408 96 1408 80
WIRE 1408 96 1344 96
WIRE 1648 96 1648 80
WIRE 1648 96 1584 96
WIRE 1888 96 1888 80
WIRE 1888 96 1824 96
WIRE 1344 112 1344 96
WIRE 1408 112 1408 96
WIRE 1584 112 1584 96
WIRE 1648 112 1648 96
WIRE 1824 112 1824 96
WIRE 1888 112 1888 96
WIRE 272 128 112 128
WIRE 336 128 272 128
WIRE 480 128 400 128
WIRE 608 128 480 128
WIRE 656 128 608 128
WIRE 2432 128 2384 128
WIRE 2560 128 2496 128
WIRE 272 144 272 128
WIRE 1520 144 1440 144
WIRE 1760 144 1680 144
WIRE 2000 144 1920 144
WIRE 112 160 112 128
WIRE 480 160 480 128
WIRE 608 160 608 128
WIRE 1520 176 1520 144
WIRE 1056 192 1056 96
WIRE 1088 192 1056 192
WIRE 1200 192 1200 96
WIRE 1200 192 1168 192
WIRE 1344 192 1344 176
WIRE 1408 192 1408 176
WIRE 1408 192 1344 192
WIRE 1584 192 1584 176
WIRE 1648 192 1648 176
WIRE 1648 192 1584 192
WIRE 1760 192 1760 144
WIRE 1824 192 1824 176
WIRE 1888 192 1888 176
WIRE 1888 192 1824 192
WIRE 2000 192 2000 144
WIRE 1408 208 1408 192
WIRE 1648 208 1648 192
WIRE 1888 208 1888 192
WIRE 2096 208 2048 208
WIRE 2240 208 2160 208
WIRE 2384 224 2384 128
WIRE 2432 224 2384 224
WIRE 2560 224 2560 128
WIRE 2560 224 2512 224
WIRE 368 272 336 272
WIRE 480 272 480 240
WIRE 480 272 448 272
WIRE 512 272 480 272
WIRE 608 272 608 224
WIRE 608 272 576 272
WIRE 720 272 720 176
WIRE 720 272 608 272
WIRE 816 272 720 272
WIRE 912 272 880 272
WIRE 480 304 480 272
WIRE 720 304 720 272
WIRE 912 304 912 272
WIRE 1056 304 1056 192
WIRE 1104 304 1056 304
WIRE 1200 320 1200 192
WIRE 1200 320 1168 320
WIRE 1232 320 1200 320
WIRE 1312 320 1312 -16
WIRE 1312 320 1296 320
WIRE 1520 320 1520 256
WIRE 1760 320 1760 256
WIRE 1760 320 1520 320
WIRE 2000 320 2000 256
WIRE 2000 320 1760 320
WIRE 2048 320 2048 208
WIRE 2048 320 2000 320
WIRE 2096 320 2048 320
WIRE 1056 336 1008 336
WIRE 1104 336 1056 336
WIRE 2240 336 2240 208
WIRE 2240 336 2160 336
WIRE 2272 336 2240 336
WIRE 2384 336 2384 224
WIRE 2384 336 2352 336
WIRE 2448 336 2384 336
WIRE 2096 352 2048 352
WIRE 2560 352 2560 224
WIRE 2560 352 2512 352
WIRE 2640 352 2560 352
WIRE 144 368 112 368
WIRE 256 368 224 368
WIRE 304 368 256 368
WIRE 368 368 304 368
WIRE 1056 368 1056 336
WIRE 2448 368 2400 368
WIRE 256 384 256 368
WIRE 304 384 304 368
WIRE 1408 416 1408 288
WIRE 1648 416 1648 288
WIRE 1648 416 1408 416
WIRE 1888 416 1888 288
WIRE 1888 416 1648 416
WIRE 2240 416 2240 336
WIRE 2240 416 1888 416
WIRE 1664 496 1600 496
WIRE 1776 496 1744 496
WIRE 2208 496 1840 496
WIRE 112 528 112 368
WIRE 192 528 112 528
WIRE 272 528 192 528
WIRE 192 544 192 528
WIRE 112 560 112 528
WIRE 752 624 544 624
WIRE 880 624 752 624
WIRE 1024 624 880 624
WIRE 1056 624 1024 624
WIRE 1168 624 1136 624
WIRE 1344 624 1168 624
WIRE 1456 640 1408 640
WIRE 1488 640 1456 640
WIRE 1600 640 1600 496
WIRE 1600 640 1568 640
WIRE 1664 640 1600 640
WIRE 1776 640 1744 640
WIRE 1856 640 1840 640
WIRE 1872 640 1856 640
WIRE 1968 640 1968 624
WIRE 1968 640 1936 640
WIRE 2048 640 1968 640
WIRE 2208 640 2208 496
WIRE 2224 640 2208 640
WIRE 2320 640 2320 624
WIRE 2320 640 2288 640
WIRE 2400 640 2320 640
WIRE 544 656 544 624
WIRE 1344 656 1312 656
WIRE 1600 656 1600 640
WIRE 1968 656 1968 640
WIRE 2144 656 2112 656
WIRE 2320 656 2320 640
WIRE 2496 656 2464 656
WIRE 752 672 752 624
WIRE 1168 672 1168 624
WIRE 1856 672 1856 640
WIRE 2048 672 2016 672
WIRE 2208 672 2208 640
WIRE 2400 672 2368 672
WIRE 384 688 384 672
WIRE 1600 736 1600 720
WIRE 208 752 160 752
WIRE 304 752 272 752
WIRE 336 752 304 752
WIRE 880 768 880 624
WIRE 928 768 880 768
WIRE 1856 768 1856 752
WIRE 2016 768 2016 672
WIRE 2016 768 1856 768
WIRE 2144 768 2144 656
WIRE 2144 768 2016 768
WIRE 2208 768 2208 752
WIRE 2368 768 2368 672
WIRE 2368 768 2208 768
WIRE 2496 768 2496 656
WIRE 2496 768 2368 768
WIRE 1024 784 1024 624
WIRE 1024 784 992 784
WIRE 1056 784 1024 784
WIRE 1168 784 1168 736
WIRE 1168 784 1120 784
WIRE 1200 784 1168 784
WIRE 1312 784 1312 656
WIRE 1312 784 1280 784
WIRE 1344 784 1312 784
WIRE 1456 784 1456 640
WIRE 1456 784 1424 784
WIRE 384 800 384 784
WIRE 464 800 384 800
WIRE 544 800 544 736
WIRE 544 800 528 800
WIRE 560 800 544 800
WIRE 640 800 640 752
WIRE 640 800 624 800
WIRE 656 800 640 800
WIRE 752 800 752 736
WIRE 752 800 736 800
WIRE 768 800 752 800
WIRE 880 800 848 800
WIRE 928 800 880 800
WIRE 304 816 304 752
WIRE 384 816 384 800
WIRE 1168 816 1168 784
WIRE 640 848 640 800
WIRE 880 848 880 800
WIRE 1600 848 1600 816
WIRE 1712 848 1600 848
WIRE 1600 864 1600 848
WIRE 304 912 304 896
WIRE 384 912 384 896
WIRE 384 912 304 912
WIRE 384 928 384 912
FLAG 112 240 0
FLAG 112 640 0
FLAG 272 224 0
FLAG 272 528 V+
FLAG 336 272 V+
FLAG 480 384 0
FLAG 192 608 0
FLAG 720 384 0
FLAG 720 16 V+
FLAG 256 464 0
FLAG 304 448 0
FLAG 368 368 Vref
FLAG 2128 304 V+
FLAG 2128 368 0
FLAG 2048 352 Vref
FLAG 1136 288 V+
FLAG 1136 352 0
FLAG 1056 448 Vref
FLAG 912 368 0
FLAG 960 96 Vref
FLAG 2480 320 V+
FLAG 2480 384 0
FLAG 2400 368 Vref
FLAG 2640 352 cabsim
FLAG 160 752 cabsim
FLAG 384 672 V+
FLAG 384 1008 0
FLAG 960 752 V+
FLAG 960 816 0
FLAG 640 928 0
FLAG 880 912 0
FLAG 640 672 V+
FLAG 1376 672 V+
FLAG 1376 608 0
FLAG 1168 960 0
FLAG 1600 944 0
FLAG 2080 688 V+
FLAG 2080 624 0
FLAG 1968 736 0
FLAG 1968 544 V+
FLAG 2432 688 V+
FLAG 2432 624 0
FLAG 2320 736 0
FLAG 2320 544 V+
SYMBOL voltage 112 144 R0
WINDOW 123 24 124 Left 2
WINDOW 39 0 0 Left 2
SYMATTR Value2 AC 1
SYMATTR InstName V1
SYMATTR Value SINE(0 1 1000)
SYMBOL res 256 128 R0
SYMATTR InstName R1
SYMATTR Value 10Meg
SYMBOL cap 400 112 R90
WINDOW 0 0 32 VBottom 2
WINDOW 3 32 32 VTop 2
SYMATTR InstName C1
SYMATTR Value 100n
SYMBOL res 464 144 R0
SYMATTR InstName R2
SYMATTR Value 120k
SYMBOL voltage 112 544 R0
WINDOW 123 0 0 Left 2
WINDOW 39 0 0 Left 2
SYMATTR InstName V2
SYMATTR Value 9
SYMBOL cap 176 544 R0
SYMATTR InstName C2
SYMATTR Value 220µ
SYMBOL res 464 256 R90
WINDOW 0 0 56 VBottom 2
WINDOW 3 32 56 VTop 2
SYMATTR InstName R3
SYMATTR Value 120k
SYMBOL res 464 288 R0
SYMATTR InstName R4
SYMATTR Value 200k
SYMBOL cap 576 256 R90
WINDOW 0 0 32 VBottom 2
WINDOW 3 32 32 VTop 2
SYMATTR InstName C3
SYMATTR Value 4.7µ
SYMBOL cap 592 160 R0
SYMATTR InstName C4
SYMATTR Value 1n
SYMBOL npn 656 80 R0
SYMATTR InstName Q1
SYMATTR Value BC546B
SYMBOL res 704 288 R0
SYMATTR InstName R5
SYMATTR Value 7.5k
SYMBOL cap 1008 320 R90
WINDOW 0 0 32 VBottom 2
WINDOW 3 32 32 VTop 2
SYMATTR InstName C5
SYMATTR Value 470n
SYMBOL res 240 352 R90
WINDOW 0 0 56 VBottom 2
WINDOW 3 32 56 VTop 2
SYMATTR InstName R7
SYMATTR Value 10k
SYMBOL res 272 480 R180
WINDOW 0 36 76 Left 2
WINDOW 3 36 40 Left 2
SYMATTR InstName R8
SYMATTR Value 10k
SYMBOL cap 288 384 R0
SYMATTR InstName C6
SYMATTR Value 100µ
SYMBOL EXTRA\\AudioOpamp\\TI\\TL072_TI 2128 336 R0
SYMATTR InstName U1
SYMBOL pot 1392 112 R0
WINDOW 0 62 -5 Right 2
WINDOW 3 104 55 Right 2
WINDOW 123 139 -1 Right 2
SYMATTR InstName U2
SYMATTR Value R=100k
SYMATTR Value2 W=0.5
SYMBOL res 1392 192 R0
SYMATTR InstName R6
SYMATTR Value 10k
SYMBOL res 1392 -16 R0
SYMATTR InstName R9
SYMATTR Value 10k
SYMBOL cap 1328 112 R0
SYMATTR InstName C7
SYMATTR Value 47n
SYMBOL res 1504 160 R0
SYMATTR InstName R10
SYMATTR Value 10k
SYMBOL pot 1632 112 R0
WINDOW 0 62 -5 Right 2
WINDOW 3 104 55 Right 2
WINDOW 123 140 -1 Right 2
SYMATTR InstName U3
SYMATTR Value R=100k
SYMATTR Value2 W=0.5
SYMBOL res 1632 192 R0
SYMATTR InstName R11
SYMATTR Value 3.6k
SYMBOL res 1632 -16 R0
SYMATTR InstName R12
SYMATTR Value 3.6k
SYMBOL cap 1568 112 R0
SYMATTR InstName C8
SYMATTR Value 15n
SYMBOL pot 1872 112 R0
WINDOW 0 62 -5 Right 2
WINDOW 3 104 55 Right 2
WINDOW 123 150 -4 Right 2
SYMATTR InstName U4
SYMATTR Value R=100k
SYMATTR Value2 W=0.5
SYMBOL res 1872 192 R0
SYMATTR InstName R14
SYMATTR Value 1.8k
SYMBOL res 1872 -16 R0
SYMATTR InstName R15
SYMATTR Value 1.8k
SYMBOL cap 1808 112 R0
SYMATTR InstName C9
SYMATTR Value 5.6n
SYMBOL cap 1744 192 R0
SYMATTR InstName C10
SYMATTR Value 15n
SYMBOL cap 1984 192 R0
SYMATTR InstName C11
SYMATTR Value 5.6n
SYMBOL cap 2160 192 R90
WINDOW 0 0 32 VBottom 2
WINDOW 3 32 32 VTop 2
SYMATTR InstName C12
SYMATTR Value 10p
SYMBOL EXTRA\\AudioOpamp\\TI\\TL072_TI 1136 320 R0
SYMATTR InstName U5
SYMBOL res 1040 352 R0
SYMATTR InstName R13
SYMATTR Value 100k
SYMBOL res 1184 176 R90
WINDOW 0 0 56 VBottom 2
WINDOW 3 32 56 VTop 2
SYMATTR InstName R16
SYMATTR Value 33k
SYMBOL cap 1168 80 R90
WINDOW 0 0 32 VBottom 2
WINDOW 3 32 32 VTop 2
SYMATTR InstName C13
SYMATTR Value 100p
SYMBOL pot 896 304 R0
WINDOW 0 -17 33 Right 2
WINDOW 3 -17 86 Right 2
WINDOW 123 -17 60 Right 2
SYMATTR InstName U6
SYMATTR Value R=100k
SYMATTR Value2 W=0.5
SYMATTR SpiceModel pot_log
SYMBOL res 944 112 R270
WINDOW 0 32 56 VTop 2
WINDOW 3 0 56 VBottom 2
SYMATTR InstName R17
SYMATTR Value 10k
SYMBOL cap 1296 304 R90
WINDOW 0 0 32 VBottom 2
WINDOW 3 32 32 VTop 2
SYMATTR InstName C15
SYMATTR Value 10µ
SYMBOL cap 880 256 R90
WINDOW 0 0 32 VBottom 2
WINDOW 3 32 32 VTop 2
SYMATTR InstName C16
SYMATTR Value 1µ
SYMBOL res 2368 320 R90
WINDOW 0 0 56 VBottom 2
WINDOW 3 32 56 VTop 2
SYMATTR InstName R18
SYMATTR Value 10k
SYMBOL EXTRA\\AudioOpamp\\TI\\TL072_TI 2480 352 R0
SYMATTR InstName U7
SYMBOL res 2528 208 R90
WINDOW 0 0 56 VBottom 2
WINDOW 3 32 56 VTop 2
SYMATTR InstName R19
SYMATTR Value 24k
SYMBOL cap 2496 112 R90
WINDOW 0 0 32 VBottom 2
WINDOW 3 32 32 VTop 2
SYMATTR InstName C14
SYMATTR Value 47p
SYMBOL njf 336 688 R0
SYMATTR InstName J1
SYMATTR Value J201_0.8
SYMBOL cap 272 736 R90
WINDOW 0 0 32 VBottom 2
WINDOW 3 32 32 VTop 2
SYMATTR InstName C17
SYMATTR Value 1n
SYMBOL res 288 800 R0
SYMATTR InstName R21
SYMATTR Value 1Meg
SYMBOL res 368 800 R0
SYMATTR InstName R22
SYMATTR Value 1k
SYMBOL res 368 912 R0
SYMATTR InstName R20
SYMATTR Value 22k
SYMBOL cap 528 784 R90
WINDOW 0 0 32 VBottom 2
WINDOW 3 32 32 VTop 2
SYMATTR InstName C18
SYMATTR Value 22n
SYMBOL EXTRA\\AudioOpamp\\TI\\TL072_TI 960 784 R0
SYMATTR InstName U8
SYMBOL cap 624 784 R90
WINDOW 0 0 32 VBottom 2
WINDOW 3 32 32 VTop 2
SYMATTR InstName C19
SYMATTR Value 10n
SYMBOL res 752 784 R90
WINDOW 0 0 56 VBottom 2
WINDOW 3 32 56 VTop 2
SYMATTR InstName R23
SYMATTR Value 33k
SYMBOL res 624 656 R0
SYMATTR InstName R24
SYMATTR Value 1Meg
SYMBOL res 624 832 R0
SYMATTR InstName R25
SYMATTR Value 1Meg
SYMBOL res 864 784 R90
WINDOW 0 0 56 VBottom 2
WINDOW 3 32 56 VTop 2
SYMATTR InstName R26
SYMATTR Value 100k
SYMBOL cap 864 848 R0
SYMATTR InstName C20
SYMATTR Value 220p
SYMBOL res 1152 608 R90
WINDOW 0 0 56 VBottom 2
WINDOW 3 32 56 VTop 2
SYMATTR InstName R27
SYMATTR Value 220k
SYMBOL cap 736 672 R0
SYMATTR InstName C21
SYMATTR Value 3.3n
SYMBOL res 528 640 R0
SYMATTR InstName R28
SYMATTR Value 15k
SYMBOL EXTRA\\AudioOpamp\\TI\\TL072_TI 1376 640 M180
SYMATTR InstName U9
SYMBOL cap 1152 672 R0
SYMATTR InstName C22
SYMATTR Value 3.3n
SYMBOL cap 1120 768 R90
WINDOW 0 0 32 VBottom 2
WINDOW 3 32 32 VTop 2
SYMATTR InstName C23
SYMATTR Value 10n
SYMBOL res 1152 800 R0
SYMATTR InstName R29
SYMATTR Value 10k
SYMBOL cap 1152 896 R0
SYMATTR InstName C24
SYMATTR Value 47n
SYMBOL res 1296 768 R90
WINDOW 0 0 56 VBottom 2
WINDOW 3 32 56 VTop 2
SYMATTR InstName R30
SYMATTR Value 100
SYMBOL res 1440 768 R90
WINDOW 0 0 56 VBottom 2
WINDOW 3 32 56 VTop 2
SYMATTR InstName R31
SYMATTR Value 3.5k
SYMBOL res 1584 624 R90
WINDOW 0 0 56 VBottom 2
WINDOW 3 32 56 VTop 2
SYMATTR InstName R32
SYMATTR Value 2.7k
SYMBOL cap 1584 656 R0
SYMATTR InstName C25
SYMATTR Value 1µ
SYMBOL res 1584 848 R0
SYMATTR InstName R33
SYMATTR Value 100k
SYMBOL res 1760 624 R90
WINDOW 0 0 56 VBottom 2
WINDOW 3 32 56 VTop 2
SYMATTR InstName R35
SYMATTR Value 1k
SYMBOL cap 1840 624 R90
WINDOW 0 0 32 VBottom 2
WINDOW 3 32 32 VTop 2
SYMATTR InstName C26
SYMATTR Value 6.8n
SYMBOL res 1952 528 R0
SYMATTR InstName R36
SYMATTR Value 1Meg
SYMBOL res 1952 640 R0
SYMATTR InstName R37
SYMATTR Value 1Meg
SYMBOL cap 1936 624 R90
WINDOW 0 0 32 VBottom 2
WINDOW 3 32 32 VTop 2
SYMATTR InstName C27
SYMATTR Value 6.8n
SYMBOL EXTRA\\AudioOpamp\\TI\\TL072_TI 2080 656 M180
SYMATTR InstName U10
SYMBOL res 1840 656 R0
SYMATTR InstName R38
SYMATTR Value 470
SYMBOL res 2304 528 R0
SYMATTR InstName R39
SYMATTR Value 1Meg
SYMBOL res 2304 640 R0
SYMATTR InstName R40
SYMATTR Value 1Meg
SYMBOL cap 2288 624 R90
WINDOW 0 0 32 VBottom 2
WINDOW 3 32 32 VTop 2
SYMATTR InstName C28
SYMATTR Value 22n
SYMBOL EXTRA\\AudioOpamp\\TI\\TL072_TI 2432 656 M180
SYMATTR InstName U11
SYMBOL res 2192 656 R0
SYMATTR InstName R41
SYMATTR Value 510
SYMBOL res 1760 480 R90
WINDOW 0 0 56 VBottom 2
WINDOW 3 32 56 VTop 2
SYMATTR InstName R42
SYMATTR Value 1k
SYMBOL cap 1840 480 R90
WINDOW 0 0 32 VBottom 2
WINDOW 3 32 32 VTop 2
SYMATTR InstName C29
SYMATTR Value 22n
SYMBOL res 1584 720 R0
SYMATTR InstName R34
SYMATTR Value 4.7k
TEXT 744 496 Left 2 !;tran 0 30m 10m
TEXT 744 528 Left 2 !.ac dec 500 10 10000
TEXT 1176 488 Left 2 !;.step param W 0 1 0.1
