Version 4
SHEET 1 3028 1204
WIRE 1728 32 1728 16
WIRE 960 48 960 16
WIRE 1104 112 1024 112
WIRE 1152 112 1104 112
WIRE 1280 112 1216 112
WIRE 1104 144 1104 112
WIRE 1280 144 1280 112
WIRE 1728 144 1728 112
WIRE 1760 144 1728 144
WIRE 1872 144 1824 144
WIRE 960 176 960 128
WIRE 1024 176 1024 112
WIRE 1024 176 960 176
WIRE 1472 176 1312 176
WIRE 1488 176 1472 176
WIRE 1568 176 1552 176
WIRE 1728 176 1728 144
WIRE 2624 176 2576 176
WIRE 2800 176 2688 176
WIRE 960 208 960 176
WIRE 1472 208 1472 176
WIRE 256 224 224 224
WIRE 368 224 336 224
WIRE 416 224 368 224
WIRE 480 224 416 224
WIRE 368 240 368 224
WIRE 416 240 416 224
WIRE 1568 240 1568 176
WIRE 1568 240 1504 240
WIRE 1584 240 1568 240
WIRE 1680 240 1664 240
WIRE 1872 256 1872 144
WIRE 2576 256 2576 176
WIRE 2640 256 2576 256
WIRE 2800 256 2800 176
WIRE 2800 256 2720 256
WIRE 2880 256 2800 256
WIRE 3024 256 2944 256
WIRE 752 272 640 272
WIRE 864 272 816 272
WIRE 912 272 864 272
WIRE 864 288 864 272
WIRE 1104 288 1104 224
WIRE 1152 288 1104 288
WIRE 1280 288 1280 208
WIRE 1280 288 1216 288
WIRE 1344 288 1280 288
WIRE 1472 288 1472 272
WIRE 1984 288 1904 288
WIRE 640 320 640 272
WIRE 1280 320 1280 288
WIRE 960 336 960 304
WIRE 1344 352 1344 288
WIRE 1344 352 1312 352
WIRE 2448 352 2384 352
WIRE 2576 352 2576 256
WIRE 2576 352 2528 352
WIRE 2656 352 2576 352
WIRE 2800 368 2800 256
WIRE 2800 368 2720 368
WIRE 224 384 224 224
WIRE 304 384 224 384
WIRE 384 384 304 384
WIRE 2256 384 2032 384
WIRE 2656 384 2624 384
WIRE 304 400 304 384
WIRE 2032 400 2032 384
WIRE 224 416 224 384
WIRE 2256 416 2256 384
WIRE 1280 448 1280 384
WIRE 2336 448 2288 448
WIRE 2448 448 2400 448
WIRE 2576 448 2576 352
WIRE 2576 448 2528 448
WIRE 1104 480 1104 288
WIRE 1168 480 1104 480
WIRE 1248 480 1232 480
WIRE 2256 512 2256 480
WIRE 1712 656 1648 656
WIRE 1824 656 1792 656
WIRE 2256 656 1888 656
WIRE 800 784 592 784
WIRE 928 784 800 784
WIRE 1072 784 928 784
WIRE 1104 784 1072 784
WIRE 1216 784 1184 784
WIRE 1392 784 1216 784
WIRE 1504 800 1456 800
WIRE 1536 800 1504 800
WIRE 1648 800 1648 656
WIRE 1648 800 1616 800
WIRE 1712 800 1648 800
WIRE 1824 800 1792 800
WIRE 1904 800 1888 800
WIRE 1920 800 1904 800
WIRE 2016 800 2016 784
WIRE 2016 800 1984 800
WIRE 2096 800 2016 800
WIRE 2256 800 2256 656
WIRE 2272 800 2256 800
WIRE 2368 800 2368 784
WIRE 2368 800 2336 800
WIRE 2448 800 2368 800
WIRE 592 816 592 784
WIRE 1392 816 1360 816
WIRE 1648 816 1648 800
WIRE 2016 816 2016 800
WIRE 2192 816 2160 816
WIRE 2368 816 2368 800
WIRE 2544 816 2512 816
WIRE 800 832 800 784
WIRE 1216 832 1216 784
WIRE 1904 832 1904 800
WIRE 2096 832 2064 832
WIRE 2256 832 2256 800
WIRE 2448 832 2416 832
WIRE 432 848 432 832
WIRE 1648 896 1648 880
WIRE 256 912 208 912
WIRE 352 912 320 912
WIRE 384 912 352 912
WIRE 928 928 928 784
WIRE 976 928 928 928
WIRE 1904 928 1904 912
WIRE 2064 928 2064 832
WIRE 2064 928 1904 928
WIRE 2192 928 2192 816
WIRE 2192 928 2064 928
WIRE 2256 928 2256 912
WIRE 2416 928 2416 832
WIRE 2416 928 2256 928
WIRE 2544 928 2544 816
WIRE 2544 928 2416 928
WIRE 1072 944 1072 784
WIRE 1072 944 1040 944
WIRE 1104 944 1072 944
WIRE 1216 944 1216 896
WIRE 1216 944 1168 944
WIRE 1248 944 1216 944
WIRE 1360 944 1360 816
WIRE 1360 944 1328 944
WIRE 1392 944 1360 944
WIRE 1504 944 1504 800
WIRE 1504 944 1472 944
WIRE 432 960 432 944
WIRE 512 960 432 960
WIRE 592 960 592 896
WIRE 592 960 576 960
WIRE 608 960 592 960
WIRE 688 960 688 912
WIRE 688 960 672 960
WIRE 704 960 688 960
WIRE 800 960 800 896
WIRE 800 960 784 960
WIRE 816 960 800 960
WIRE 928 960 896 960
WIRE 976 960 928 960
WIRE 352 976 352 912
WIRE 432 976 432 960
WIRE 1216 976 1216 944
WIRE 688 1008 688 960
WIRE 928 1008 928 960
WIRE 1648 1008 1648 976
WIRE 1824 1008 1648 1008
WIRE 1648 1024 1648 1008
WIRE 352 1072 352 1056
WIRE 432 1072 432 1056
WIRE 432 1072 352 1072
WIRE 432 1088 432 1072
FLAG 640 400 0
FLAG 224 496 0
FLAG 384 384 V+
FLAG 304 464 0
FLAG 368 320 0
FLAG 416 304 0
FLAG 480 224 Vref
FLAG 1984 288 cabsim
FLAG 864 368 0
FLAG 960 416 0
FLAG 960 16 V+
FLAG 1280 512 0
FLAG 1728 16 V+
FLAG 1472 368 0
FLAG 1872 320 0
FLAG 1728 272 0
FLAG 2128 848 V+
FLAG 2128 784 0
FLAG 2016 896 0
FLAG 2016 704 V+
FLAG 2480 848 V+
FLAG 2480 784 0
FLAG 2368 896 0
FLAG 2368 704 V+
FLAG 432 832 V+
FLAG 432 1168 0
FLAG 1008 912 V+
FLAG 1008 976 0
FLAG 688 1088 0
FLAG 928 1072 0
FLAG 688 832 V+
FLAG 1424 832 V+
FLAG 1424 768 0
FLAG 1216 1120 0
FLAG 1648 1104 0
FLAG 208 912 cabsim
FLAG 1824 1008 clean
FLAG 2688 336 V+
FLAG 2688 400 0
FLAG 2624 384 Vref
FLAG 2384 352 clean
FLAG 2256 512 0
FLAG 2032 480 0
SYMBOL voltage 640 304 R0
WINDOW 123 24 124 Left 2
WINDOW 39 0 0 Left 2
SYMATTR Value2 AC 1
SYMATTR InstName V1
SYMATTR Value SINE(0 1 1000)
SYMBOL voltage 224 400 R0
WINDOW 123 0 0 Left 2
WINDOW 39 0 0 Left 2
SYMATTR InstName V2
SYMATTR Value 9
SYMBOL cap 288 400 R0
SYMATTR InstName C2
SYMATTR Value 220µ
SYMBOL res 352 208 R90
WINDOW 0 0 56 VBottom 2
WINDOW 3 32 56 VTop 2
SYMATTR InstName R7
SYMATTR Value 10k
SYMBOL res 384 336 R180
WINDOW 0 36 76 Left 2
WINDOW 3 36 40 Left 2
SYMATTR InstName R8
SYMATTR Value 10k
SYMBOL cap 400 240 R0
SYMATTR InstName C6
SYMATTR Value 100µ
SYMBOL pot 1264 144 R0
WINDOW 0 -17 33 Right 2
WINDOW 3 -17 86 Right 2
WINDOW 123 -17 60 Right 2
SYMATTR InstName U6
SYMATTR Value R=250k
SYMATTR Value2 W=0.5
SYMBOL cap 816 256 R90
WINDOW 0 0 32 VBottom 2
WINDOW 3 32 32 VTop 2
SYMATTR InstName C16
SYMATTR Value 100n
SYMBOL njf 912 208 R0
SYMATTR InstName J2
SYMATTR Value J2N5457
SYMBOL res 848 272 R0
SYMATTR InstName R6
SYMATTR Value 1Meg
SYMBOL res 944 320 R0
SYMATTR InstName R9
SYMATTR Value 3.3k
SYMBOL res 944 32 R0
SYMATTR InstName R10
SYMATTR Value 7.5k
SYMBOL res 1088 128 R0
SYMATTR InstName R11
SYMATTR Value 47k
SYMBOL cap 1216 96 R90
WINDOW 0 0 32 VBottom 2
WINDOW 3 32 32 VTop 2
SYMATTR InstName C5
SYMATTR Value 470p
SYMBOL cap 1216 272 R90
WINDOW 0 0 32 VBottom 2
WINDOW 3 32 32 VTop 2
SYMATTR InstName C7
SYMATTR Value 22n
SYMBOL pot 1264 320 R0
WINDOW 0 -17 33 Right 2
WINDOW 3 -17 86 Right 2
WINDOW 123 -17 60 Right 2
SYMATTR InstName U1
SYMATTR Value R=1Meg
SYMATTR Value2 W=0.5
SYMATTR SpiceModel pot_log
SYMBOL pot 1296 448 M0
WINDOW 0 -17 33 Right 2
WINDOW 3 -17 86 Right 2
WINDOW 123 -17 60 Right 2
SYMATTR InstName U2
SYMATTR Value R=50k
SYMATTR Value2 W=0.5
SYMBOL cap 1232 464 R90
WINDOW 0 0 32 VBottom 2
WINDOW 3 32 32 VTop 2
SYMATTR InstName C8
SYMATTR Value 22n
SYMBOL pot 1456 208 R0
WINDOW 0 -17 33 Right 2
WINDOW 3 -17 86 Right 2
WINDOW 123 -17 60 Right 2
SYMATTR InstName U3
SYMATTR Value R=500k
SYMATTR Value2 W=0.5
SYMATTR SpiceModel pot_log
SYMBOL res 1456 272 R0
SYMATTR InstName R12
SYMATTR Value 4.7k
SYMBOL cap 1552 160 R90
WINDOW 0 0 32 VBottom 2
WINDOW 3 32 32 VTop 2
SYMATTR InstName C9
SYMATTR Value 100p
SYMBOL res 1680 224 R90
WINDOW 0 0 56 VBottom 2
WINDOW 3 32 56 VTop 2
SYMATTR InstName R13
SYMATTR Value 22k
SYMBOL njf 1680 176 R0
SYMATTR InstName J3
SYMATTR Value J201_0.8
SYMBOL res 1712 16 R0
SYMATTR InstName R14
SYMATTR Value 4.7k
SYMBOL cap 1824 128 R90
WINDOW 0 0 32 VBottom 2
WINDOW 3 32 32 VTop 2
SYMATTR InstName C10
SYMATTR Value 470n
SYMBOL pot 1856 256 R0
WINDOW 0 -17 33 Right 2
WINDOW 3 -17 86 Right 2
WINDOW 123 -17 60 Right 2
SYMATTR InstName U4
SYMATTR Value R=50k
SYMATTR Value2 W=1
SYMATTR SpiceModel pot_log
SYMBOL res 1808 784 R90
WINDOW 0 0 56 VBottom 2
WINDOW 3 32 56 VTop 2
SYMATTR InstName R1
SYMATTR Value 1k
SYMBOL cap 1888 784 R90
WINDOW 0 0 32 VBottom 2
WINDOW 3 32 32 VTop 2
SYMATTR InstName C1
SYMATTR Value 6.8n
SYMBOL res 2000 688 R0
SYMATTR InstName R2
SYMATTR Value 1Meg
SYMBOL res 2000 800 R0
SYMATTR InstName R3
SYMATTR Value 1Meg
SYMBOL cap 1984 784 R90
WINDOW 0 0 32 VBottom 2
WINDOW 3 32 32 VTop 2
SYMATTR InstName C3
SYMATTR Value 6.8n
SYMBOL EXTRA\\AudioOpamp\\TI\\TL072_TI 2128 816 M180
SYMATTR InstName U5
SYMBOL res 1888 816 R0
SYMATTR InstName R4
SYMATTR Value 470
SYMBOL res 2352 688 R0
SYMATTR InstName R5
SYMATTR Value 1Meg
SYMBOL res 2352 800 R0
SYMATTR InstName R15
SYMATTR Value 1Meg
SYMBOL cap 2336 784 R90
WINDOW 0 0 32 VBottom 2
WINDOW 3 32 32 VTop 2
SYMATTR InstName C4
SYMATTR Value 22n
SYMBOL EXTRA\\AudioOpamp\\TI\\TL072_TI 2480 816 M180
SYMATTR InstName U7
SYMBOL res 2240 816 R0
SYMATTR InstName R16
SYMATTR Value 510
SYMBOL res 1808 640 R90
WINDOW 0 0 56 VBottom 2
WINDOW 3 32 56 VTop 2
SYMATTR InstName R17
SYMATTR Value 1k
SYMBOL cap 1888 640 R90
WINDOW 0 0 32 VBottom 2
WINDOW 3 32 32 VTop 2
SYMATTR InstName C11
SYMATTR Value 22n
SYMBOL njf 384 848 R0
SYMATTR InstName J1
SYMATTR Value J201_0.8
SYMBOL cap 320 896 R90
WINDOW 0 0 32 VBottom 2
WINDOW 3 32 32 VTop 2
SYMATTR InstName C12
SYMATTR Value 1n
SYMBOL res 336 960 R0
SYMATTR InstName R18
SYMATTR Value 1Meg
SYMBOL res 416 960 R0
SYMATTR InstName R19
SYMATTR Value 1k
SYMBOL res 416 1072 R0
SYMATTR InstName R20
SYMATTR Value 22k
SYMBOL cap 576 944 R90
WINDOW 0 0 32 VBottom 2
WINDOW 3 32 32 VTop 2
SYMATTR InstName C13
SYMATTR Value 22n
SYMBOL EXTRA\\AudioOpamp\\TI\\TL072_TI 1008 944 R0
SYMATTR InstName U8
SYMBOL cap 672 944 R90
WINDOW 0 0 32 VBottom 2
WINDOW 3 32 32 VTop 2
SYMATTR InstName C14
SYMATTR Value 10n
SYMBOL res 800 944 R90
WINDOW 0 0 56 VBottom 2
WINDOW 3 32 56 VTop 2
SYMATTR InstName R21
SYMATTR Value 33k
SYMBOL res 672 816 R0
SYMATTR InstName R22
SYMATTR Value 1Meg
SYMBOL res 672 992 R0
SYMATTR InstName R23
SYMATTR Value 1Meg
SYMBOL res 912 944 R90
WINDOW 0 0 56 VBottom 2
WINDOW 3 32 56 VTop 2
SYMATTR InstName R24
SYMATTR Value 100k
SYMBOL cap 912 1008 R0
SYMATTR InstName C15
SYMATTR Value 220p
SYMBOL res 1200 768 R90
WINDOW 0 0 56 VBottom 2
WINDOW 3 32 56 VTop 2
SYMATTR InstName R25
SYMATTR Value 220k
SYMBOL cap 784 832 R0
SYMATTR InstName C17
SYMATTR Value 3.3n
SYMBOL res 576 800 R0
SYMATTR InstName R26
SYMATTR Value 15k
SYMBOL EXTRA\\AudioOpamp\\TI\\TL072_TI 1424 800 M180
SYMATTR InstName U9
SYMBOL cap 1200 832 R0
SYMATTR InstName C18
SYMATTR Value 3.3n
SYMBOL cap 1168 928 R90
WINDOW 0 0 32 VBottom 2
WINDOW 3 32 32 VTop 2
SYMATTR InstName C19
SYMATTR Value 10n
SYMBOL res 1200 960 R0
SYMATTR InstName R27
SYMATTR Value 10k
SYMBOL cap 1200 1056 R0
SYMATTR InstName C20
SYMATTR Value 47n
SYMBOL res 1344 928 R90
WINDOW 0 0 56 VBottom 2
WINDOW 3 32 56 VTop 2
SYMATTR InstName R28
SYMATTR Value 100
SYMBOL res 1488 928 R90
WINDOW 0 0 56 VBottom 2
WINDOW 3 32 56 VTop 2
SYMATTR InstName R29
SYMATTR Value 3.5k
SYMBOL res 1632 784 R90
WINDOW 0 0 56 VBottom 2
WINDOW 3 32 56 VTop 2
SYMATTR InstName R30
SYMATTR Value 2.7k
SYMBOL cap 1632 816 R0
SYMATTR InstName C21
SYMATTR Value 1µ
SYMBOL res 1632 1008 R0
SYMATTR InstName R31
SYMATTR Value 100k
SYMBOL res 1632 880 R0
SYMATTR InstName R32
SYMATTR Value 4.7k
SYMBOL EXTRA\\AudioOpamp\\TI\\TL072_TI 2688 368 R0
SYMATTR InstName U10
SYMBOL res 2544 336 R90
WINDOW 0 0 56 VBottom 2
WINDOW 3 32 56 VTop 2
SYMATTR InstName R33
SYMATTR Value 100k
SYMBOL res 2736 240 R90
WINDOW 0 0 56 VBottom 2
WINDOW 3 32 56 VTop 2
SYMATTR InstName R34
SYMATTR Value 100k
SYMBOL cap 2688 160 R90
WINDOW 0 0 32 VBottom 2
WINDOW 3 32 32 VTop 2
SYMATTR InstName C22
SYMATTR Value 47p
SYMBOL res 2544 432 R90
WINDOW 0 0 56 VBottom 2
WINDOW 3 32 56 VTop 2
SYMATTR InstName R35
SYMATTR Value 100k
SYMBOL pot 2240 416 R0
WINDOW 0 -17 33 Right 2
WINDOW 3 -17 86 Right 2
WINDOW 123 -17 60 Right 2
SYMATTR InstName U11
SYMATTR Value R=100k
SYMATTR Value2 W=0.5
SYMATTR SpiceModel pot_log
SYMBOL cap 2944 240 R90
WINDOW 0 0 32 VBottom 2
WINDOW 3 32 32 VTop 2
SYMATTR InstName C23
SYMATTR Value 4.7µ
SYMBOL cap 2400 432 R90
WINDOW 0 0 32 VBottom 2
WINDOW 3 32 32 VTop 2
SYMATTR InstName C24
SYMATTR Value 2.2µ
SYMBOL res 2016 384 R0
SYMATTR InstName R36
SYMATTR Value 10k
TEXT 544 88 Left 2 !;tran 0 30m 10m
TEXT 544 120 Left 2 !.ac dec 500 10 20000
TEXT 552 48 Left 2 !;.step param W 0 1 0.2
