Version 4
SHEET 1 3028 1204
WIRE 960 48 960 16
WIRE 1984 48 1984 32
WIRE 1984 160 1984 128
WIRE 2016 160 1984 160
WIRE 2128 160 2080 160
WIRE 960 176 960 128
WIRE 1008 176 960 176
WIRE 1120 176 1072 176
WIRE 1232 176 1120 176
WIRE 1392 192 1296 192
WIRE 1440 192 1392 192
WIRE 1488 192 1440 192
WIRE 1616 192 1552 192
WIRE 1984 192 1984 160
WIRE 960 208 960 176
WIRE 1232 208 1168 208
WIRE 256 224 224 224
WIRE 368 224 336 224
WIRE 416 224 368 224
WIRE 480 224 416 224
WIRE 1120 224 1120 176
WIRE 1440 224 1440 192
WIRE 1616 224 1616 192
WIRE 368 240 368 224
WIRE 416 240 416 224
WIRE 1696 256 1648 256
WIRE 1808 256 1776 256
WIRE 1840 256 1808 256
WIRE 1936 256 1920 256
WIRE 752 272 640 272
WIRE 864 272 816 272
WIRE 912 272 864 272
WIRE 2128 272 2128 160
WIRE 864 288 864 272
WIRE 1808 304 1808 256
WIRE 2240 304 2160 304
WIRE 640 320 640 272
WIRE 1168 320 1168 208
WIRE 1248 320 1168 320
WIRE 1392 320 1392 192
WIRE 1392 320 1312 320
WIRE 960 336 960 304
WIRE 1440 368 1440 304
WIRE 1488 368 1440 368
WIRE 1616 368 1616 288
WIRE 1616 368 1552 368
WIRE 1680 368 1616 368
WIRE 224 384 224 224
WIRE 304 384 224 384
WIRE 384 384 304 384
WIRE 304 400 304 384
WIRE 1616 400 1616 368
WIRE 224 416 224 384
WIRE 1168 416 1168 320
WIRE 1248 416 1168 416
WIRE 1392 416 1392 320
WIRE 1392 416 1312 416
WIRE 1680 432 1680 368
WIRE 1680 432 1648 432
WIRE 1616 528 1616 464
WIRE 1440 560 1440 368
WIRE 1504 560 1440 560
WIRE 1584 560 1568 560
WIRE 1056 576 1008 576
WIRE 1168 576 1168 416
WIRE 1168 576 1136 576
WIRE 1184 576 1168 576
WIRE 1280 576 1264 576
WIRE 1392 576 1392 416
WIRE 1392 576 1360 576
WIRE 1008 592 1008 576
FLAG 640 400 0
FLAG 224 496 0
FLAG 384 384 V+
FLAG 304 464 0
FLAG 368 320 0
FLAG 416 304 0
FLAG 480 224 Vref
FLAG 2240 304 cabsim
FLAG 864 368 0
FLAG 960 416 0
FLAG 960 16 V+
FLAG 1616 592 0
FLAG 1984 32 V+
FLAG 2128 336 0
FLAG 1984 288 0
FLAG 1808 384 0
FLAG 1120 304 Vref
FLAG 1264 160 0
FLAG 1264 224 V+
FLAG 1008 656 0
SYMBOL voltage 640 304 R0
WINDOW 123 24 124 Left 2
WINDOW 39 0 0 Left 2
SYMATTR Value2 AC 1
SYMATTR InstName V1
SYMATTR Value SINE(0 1 1000)
SYMBOL voltage 224 400 R0
WINDOW 123 0 0 Left 2
WINDOW 39 0 0 Left 2
SYMATTR InstName V2
SYMATTR Value 9
SYMBOL cap 288 400 R0
SYMATTR InstName C2
SYMATTR Value 220µ
SYMBOL res 352 208 R90
WINDOW 0 0 56 VBottom 2
WINDOW 3 32 56 VTop 2
SYMATTR InstName R7
SYMATTR Value 10k
SYMBOL res 384 336 R180
WINDOW 0 36 76 Left 2
WINDOW 3 36 40 Left 2
SYMATTR InstName R8
SYMATTR Value 10k
SYMBOL cap 400 240 R0
SYMATTR InstName C6
SYMATTR Value 100µ
SYMBOL pot 1600 224 R0
WINDOW 0 -17 33 Right 2
WINDOW 3 -17 86 Right 2
WINDOW 123 -17 60 Right 2
SYMATTR InstName U6
SYMATTR Value R=250k
SYMATTR Value2 W=0.5
SYMBOL cap 816 256 R90
WINDOW 0 0 32 VBottom 2
WINDOW 3 32 32 VTop 2
SYMATTR InstName C16
SYMATTR Value 100n
SYMBOL njf 912 208 R0
SYMATTR InstName J2
SYMATTR Value J2N5457
SYMBOL res 848 272 R0
SYMATTR InstName R6
SYMATTR Value 1Meg
SYMBOL res 944 320 R0
SYMATTR InstName R9
SYMATTR Value 3.3k
SYMBOL res 944 32 R0
SYMATTR InstName R10
SYMATTR Value 7.5k
SYMBOL res 1424 208 R0
SYMATTR InstName R11
SYMATTR Value 47k
SYMBOL cap 1552 176 R90
WINDOW 0 0 32 VBottom 2
WINDOW 3 32 32 VTop 2
SYMATTR InstName C5
SYMATTR Value 470p
SYMBOL cap 1552 352 R90
WINDOW 0 0 32 VBottom 2
WINDOW 3 32 32 VTop 2
SYMATTR InstName C7
SYMATTR Value 22n
SYMBOL pot 1600 400 R0
WINDOW 0 -17 33 Right 2
WINDOW 3 -17 86 Right 2
WINDOW 123 -17 60 Right 2
SYMATTR InstName U1
SYMATTR Value R=1Meg
SYMATTR Value2 W=0.5
SYMATTR SpiceModel pot_log
SYMBOL pot 1632 528 M0
WINDOW 0 -17 33 Right 2
WINDOW 3 -17 86 Right 2
WINDOW 123 -17 60 Right 2
SYMATTR InstName U2
SYMATTR Value R=50k
SYMATTR Value2 W=0.5
SYMBOL cap 1568 544 R90
WINDOW 0 0 32 VBottom 2
WINDOW 3 32 32 VTop 2
SYMATTR InstName C8
SYMATTR Value 22n
SYMBOL res 1936 240 R90
WINDOW 0 0 56 VBottom 2
WINDOW 3 32 56 VTop 2
SYMATTR InstName R13
SYMATTR Value 22k
SYMBOL njf 1936 192 R0
SYMATTR InstName J3
SYMATTR Value J201_0.8
SYMBOL res 1968 32 R0
SYMATTR InstName R14
SYMATTR Value 4.7k
SYMBOL cap 2080 144 R90
WINDOW 0 0 32 VBottom 2
WINDOW 3 32 32 VTop 2
SYMATTR InstName C10
SYMATTR Value 470n
SYMBOL pot 2112 272 R0
WINDOW 0 -17 33 Right 2
WINDOW 3 -17 86 Right 2
WINDOW 123 -17 60 Right 2
SYMATTR InstName U4
SYMATTR Value R=50k
SYMATTR Value2 W=1
SYMATTR SpiceModel pot_log
SYMBOL res 1792 240 R90
WINDOW 0 0 56 VBottom 2
WINDOW 3 32 56 VTop 2
SYMATTR InstName R1
SYMATTR Value 330k
SYMBOL res 1824 288 M0
SYMATTR InstName R2
SYMATTR Value 220k
SYMBOL cap 1072 160 R90
WINDOW 0 0 32 VBottom 2
WINDOW 3 32 32 VTop 2
SYMATTR InstName C1
SYMATTR Value 100n
SYMBOL res 1104 208 R0
SYMATTR InstName R3
SYMATTR Value 100k
SYMBOL EXTRA\\AudioOpamp\\TI\\TL072_TI 1264 192 M180
SYMATTR InstName U3
SYMBOL res 1376 560 R90
WINDOW 0 0 56 VBottom 2
WINDOW 3 32 56 VTop 2
SYMATTR InstName R4
SYMATTR Value 10
SYMBOL res 1152 560 R90
WINDOW 0 0 56 VBottom 2
WINDOW 3 32 56 VTop 2
SYMATTR InstName R5
SYMATTR Value 470
SYMBOL cap 992 592 R0
SYMATTR InstName C3
SYMATTR Value 470n
SYMBOL LED 1312 304 R90
WINDOW 0 0 32 VBottom 2
WINDOW 3 72 32 VTop 2
SYMATTR InstName D1
SYMATTR Value NSCW100
SYMBOL LED 1248 432 R270
WINDOW 0 72 32 VTop 2
WINDOW 3 0 32 VBottom 2
SYMATTR InstName D2
SYMATTR Value NSCW100
SYMBOL res 1280 560 R90
WINDOW 0 0 56 VBottom 2
WINDOW 3 32 56 VTop 2
SYMATTR InstName R12
SYMATTR Value 100
TEXT 544 88 Left 2 !;tran 20m
TEXT 544 120 Left 2 !.ac dec 500 10 20000
TEXT 552 48 Left 2 !;.step param W 0 1 0.2
