Version 4
SHEET 1 2840 1268
WIRE 2192 -336 2016 -336
WIRE 1696 -320 1520 -320
WIRE 2016 -256 2016 -336
WIRE 2048 -256 2016 -256
WIRE 1520 -240 1520 -320
WIRE 1552 -240 1520 -240
WIRE 2192 -240 2192 -336
WIRE 2192 -240 2112 -240
WIRE 2224 -240 2192 -240
WIRE 2320 -240 2288 -240
WIRE 2432 -240 2320 -240
WIRE 1696 -224 1696 -320
WIRE 1696 -224 1616 -224
WIRE 1728 -224 1696 -224
WIRE 1824 -224 1792 -224
WIRE 1872 -224 1824 -224
WIRE 2000 -224 1936 -224
WIRE 2048 -224 2000 -224
WIRE 2320 -224 2320 -240
WIRE 1504 -208 1440 -208
WIRE 1552 -208 1504 -208
WIRE 1824 -208 1824 -224
WIRE 352 -192 352 -224
WIRE 2000 -192 2000 -224
WIRE 1504 -176 1504 -208
WIRE 960 -144 912 -144
WIRE 1008 -144 960 -144
WIRE 144 -128 96 -128
WIRE 256 -128 224 -128
WIRE 304 -128 256 -128
WIRE 256 -96 256 -128
WIRE 960 -80 960 -144
WIRE 1056 -80 1056 -112
WIRE 256 16 256 -32
WIRE 352 16 352 -16
WIRE 352 16 256 16
WIRE 480 16 352 16
WIRE 560 16 480 16
WIRE 704 16 624 16
WIRE 704 32 704 16
WIRE 960 32 960 -16
WIRE 1056 32 1056 0
WIRE 1056 32 960 32
WIRE 1152 32 1056 32
WIRE 352 48 352 16
WIRE 480 48 480 16
WIRE 880 64 736 64
WIRE 1056 64 1056 32
WIRE 880 96 880 64
WIRE 1200 96 1200 64
WIRE 1264 96 1200 96
WIRE 1360 96 1328 96
WIRE 240 112 96 112
WIRE 304 112 240 112
WIRE 1008 128 912 128
WIRE 1200 128 1200 96
WIRE 1360 128 1360 96
WIRE 240 144 240 112
WIRE 1440 160 1392 160
WIRE 352 176 352 144
WIRE 480 176 480 128
WIRE 528 176 480 176
WIRE 608 176 592 176
WIRE 704 176 704 96
WIRE 704 176 608 176
WIRE 96 192 96 112
WIRE 880 192 880 160
WIRE 1056 192 1056 160
WIRE 704 240 704 176
WIRE 608 272 608 176
WIRE 672 272 608 272
WIRE 480 304 480 176
WIRE 704 384 704 304
WIRE 704 384 608 384
WIRE 880 384 880 352
WIRE 976 384 880 384
WIRE 1072 384 976 384
WIRE 1312 384 1072 384
WIRE 976 400 976 384
WIRE 1072 400 1072 384
WIRE 880 416 880 384
WIRE 1312 416 1312 384
WIRE 704 432 704 384
WIRE 480 464 480 368
WIRE 608 464 608 384
WIRE 608 464 480 464
WIRE 672 464 608 464
WIRE 1072 496 1072 480
WIRE 1152 496 1072 496
WIRE 1200 496 1152 496
WIRE 1072 512 1072 496
WIRE 1152 512 1152 496
WIRE 1312 512 1312 496
WIRE 1392 512 1312 512
WIRE 1440 512 1392 512
WIRE 1312 528 1312 512
WIRE 1392 528 1392 512
FLAG 96 272 0
FLAG 880 496 0
FLAG 976 464 0
FLAG 1072 592 0
FLAG 1152 576 0
FLAG 880 352 V+
FLAG 1200 496 Vref
FLAG 240 224 0
FLAG 352 256 0
FLAG 96 -128 Vref
FLAG 352 -224 V+
FLAG 880 272 0
FLAG 1056 272 0
FLAG 1056 -208 V+
FLAG 832 -144 Vref
FLAG 1360 192 0
FLAG 704 496 0
FLAG 1584 -256 V+
FLAG 1584 -192 0
FLAG 1824 -128 0
FLAG 1312 608 0
FLAG 1392 592 0
FLAG 1440 512 Vref2
FLAG 1504 -96 Vref2
FLAG 2080 -272 V+
FLAG 2080 -208 0
FLAG 2320 -144 0
FLAG 2000 -112 Vref2
FLAG 1440 160 fet_out
FLAG 1376 -208 fet_out
FLAG 2432 -240 fx_out
FLAG 1200 -32 V+
FLAG 1200 208 0
SYMBOL voltage 96 176 R0
WINDOW 123 24 124 Left 2
WINDOW 39 0 0 Left 2
SYMATTR Value2 AC 1
SYMATTR InstName V1
SYMATTR Value SINE(0 1 1000)
SYMBOL voltage 880 400 R0
WINDOW 123 0 0 Left 2
WINDOW 39 0 0 Left 2
SYMATTR InstName V2
SYMATTR Value 9
SYMBOL cap 960 400 R0
SYMATTR InstName C1
SYMATTR Value 220µ
SYMBOL res 1056 384 R0
SYMATTR InstName R1
SYMATTR Value 10k
SYMBOL res 1056 496 R0
SYMATTR InstName R2
SYMATTR Value 10k
SYMBOL cap 1136 512 R0
SYMATTR InstName C2
SYMATTR Value 100µ
SYMBOL res 224 128 R0
SYMATTR InstName R3
SYMATTR Value 1Meg
SYMBOL njf 304 48 R0
SYMATTR InstName J1
SYMATTR Value KP303G
SYMBOL res 336 160 R0
SYMATTR InstName R4
SYMATTR Value 2k
SYMBOL res 336 -112 R0
SYMATTR InstName R5
SYMATTR Value 2k
SYMBOL njf 304 -192 R0
SYMATTR InstName J2
SYMATTR Value KP303G
SYMBOL res 240 -144 R90
WINDOW 0 0 56 VBottom 2
WINDOW 3 32 56 VTop 2
SYMATTR InstName R6
SYMATTR Value 22k
SYMBOL cap 240 -96 R0
SYMATTR InstName C3
SYMATTR Value 1µ
SYMBOL pot 864 96 R0
SYMATTR InstName U4
SYMATTR Value R=1Meg
SYMATTR Value2 W=0.5
SYMBOL res 864 176 R0
SYMATTR InstName R9
SYMATTR Value 100k
SYMBOL njf 1008 64 R0
SYMATTR InstName J3
SYMATTR Value KP303G
SYMBOL res 1040 176 R0
SYMATTR InstName R10
SYMATTR Value 2k
SYMBOL res 1040 -96 R0
SYMATTR InstName R11
SYMATTR Value 2k
SYMBOL njf 1008 -208 R0
SYMATTR InstName J4
SYMATTR Value KP303G
SYMBOL res 928 -160 R90
WINDOW 0 0 56 VBottom 2
WINDOW 3 32 56 VTop 2
SYMATTR InstName R12
SYMATTR Value 3Meg
SYMBOL cap 944 -80 R0
SYMATTR InstName C10
SYMATTR Value 1µ
SYMBOL cap 1328 80 R90
WINDOW 0 0 32 VBottom 2
WINDOW 3 32 32 VTop 2
SYMATTR InstName C11
SYMATTR Value 1µ
SYMBOL pot 1344 128 R0
SYMATTR InstName U5
SYMATTR Value R=25k
SYMATTR Value2 W=0.5
SYMBOL cap 624 0 R90
WINDOW 0 0 32 VBottom 2
WINDOW 3 32 32 VTop 2
SYMATTR InstName C12
SYMATTR Value 220p
SYMBOL pot 688 32 R0
SYMATTR InstName U6
SYMATTR Value R=220k
SYMATTR Value2 W=0.5
SYMBOL res 464 32 R0
SYMATTR InstName R14
SYMATTR Value 100k
SYMBOL pot 720 304 R180
SYMATTR InstName U7
SYMATTR Value R=220k
SYMATTR Value2 W=0.5
SYMBOL pot 720 496 R180
SYMATTR InstName U8
SYMATTR Value R=25k
SYMATTR Value2 W=0.5
SYMBOL cap 496 368 R180
WINDOW 0 24 56 Left 2
WINDOW 3 24 8 Left 2
SYMATTR InstName C14
SYMATTR Value 47n
SYMBOL cap 592 160 R90
WINDOW 0 0 32 VBottom 2
WINDOW 3 32 32 VTop 2
SYMATTR InstName C13
SYMATTR Value 100n
SYMBOL EXTRA\\AudioOpamp\\TI\\TL072_TI 1584 -224 R0
SYMATTR InstName U1
SYMBOL cap 1792 -240 R90
WINDOW 0 0 32 VBottom 2
WINDOW 3 32 32 VTop 2
SYMATTR InstName C5
SYMATTR Value 1µ
SYMBOL res 1808 -224 R0
SYMATTR InstName R16
SYMATTR Value 100k
SYMBOL res 1296 400 R0
SYMATTR InstName R17
SYMATTR Value 10k
SYMBOL res 1296 512 R0
SYMATTR InstName R18
SYMATTR Value 10k
SYMBOL cap 1376 528 R0
SYMATTR InstName C6
SYMATTR Value 100µ
SYMBOL cap 1440 -224 R90
WINDOW 0 0 32 VBottom 2
WINDOW 3 32 32 VTop 2
SYMATTR InstName C7
SYMATTR Value 1µ
SYMBOL res 1488 -192 R0
SYMATTR InstName R8
SYMATTR Value 100k
SYMBOL EXTRA\\AudioOpamp\\TI\\TL072_TI 2080 -240 R0
SYMATTR InstName U2
SYMBOL cap 2288 -256 R90
WINDOW 0 0 32 VBottom 2
WINDOW 3 32 32 VTop 2
SYMATTR InstName C4
SYMATTR Value 1µ
SYMBOL res 2304 -240 R0
SYMATTR InstName R19
SYMATTR Value 100k
SYMBOL cap 1936 -240 R90
WINDOW 0 0 32 VBottom 2
WINDOW 3 32 32 VTop 2
SYMATTR InstName C8
SYMATTR Value 1µ
SYMBOL res 1984 -208 R0
SYMATTR InstName R20
SYMATTR Value 100k
SYMBOL njf 1152 -32 R0
SYMATTR InstName J6
SYMATTR Value J201_0.8
SYMBOL res 1184 112 R0
SYMATTR InstName R23
SYMATTR Value 10k
TEXT 1200 320 Left 2 !;tran 0 20m 10m
TEXT 1200 352 Left 2 !.ac dec 1000 10 10000
TEXT 472 -72 Left 2 !;.step param W 0 1 0.1
