Version 4
SHEET 1 2148 1268
WIRE 1600 -112 1552 -112
WIRE 1728 -112 1680 -112
WIRE 1808 -112 1792 -112
WIRE 1824 -112 1808 -112
WIRE 1920 -112 1888 -112
WIRE 2000 -112 1920 -112
WIRE 1920 -96 1920 -112
WIRE 2144 -96 2064 -96
WIRE 2000 -80 1984 -80
WIRE 1808 -64 1808 -112
WIRE 640 32 608 32
WIRE 672 32 640 32
WIRE 768 32 752 32
WIRE 832 32 768 32
WIRE 976 32 896 32
WIRE 992 32 976 32
WIRE 1104 32 1072 32
WIRE 1280 32 1104 32
WIRE 464 48 464 16
WIRE 1408 48 1344 48
WIRE 1440 48 1408 48
WIRE 1552 48 1552 -112
WIRE 1552 48 1520 48
WIRE 1680 48 1552 48
WIRE 1808 48 1808 16
WIRE 1984 48 1984 -80
WIRE 1984 48 1808 48
WIRE 2144 48 2144 -96
WIRE 2144 48 1984 48
WIRE 640 64 640 32
WIRE 768 64 768 32
WIRE 1280 64 1264 64
WIRE 1104 80 1104 32
WIRE 1552 80 1552 48
WIRE 1680 96 1680 48
WIRE 240 112 96 112
WIRE 336 112 304 112
WIRE 416 112 336 112
WIRE 336 144 336 112
WIRE 464 160 464 144
WIRE 560 160 464 160
WIRE 640 160 640 128
WIRE 640 160 624 160
WIRE 768 160 768 144
WIRE 880 160 768 160
WIRE 464 176 464 160
WIRE 768 176 768 160
WIRE 976 176 976 32
WIRE 976 176 944 176
WIRE 1008 176 976 176
WIRE 1104 176 1104 144
WIRE 1104 176 1072 176
WIRE 1152 176 1104 176
WIRE 1264 176 1264 64
WIRE 1264 176 1232 176
WIRE 1312 176 1264 176
WIRE 1408 176 1408 48
WIRE 1408 176 1392 176
WIRE 1552 176 1552 144
WIRE 96 192 96 112
WIRE 640 192 640 160
WIRE 880 192 848 192
WIRE 1104 208 1104 176
WIRE 1680 224 1680 176
WIRE 1728 224 1680 224
WIRE 1808 224 1792 224
WIRE 1824 224 1808 224
WIRE 1920 224 1888 224
WIRE 2000 224 1920 224
WIRE 1920 240 1920 224
WIRE 2144 240 2064 240
WIRE 2000 256 1984 256
WIRE 336 272 336 224
WIRE 464 272 464 256
WIRE 464 272 336 272
WIRE 1808 272 1808 224
WIRE 464 288 464 272
WIRE 640 288 640 272
WIRE 848 288 848 192
WIRE 848 288 640 288
WIRE 976 288 976 176
WIRE 976 288 848 288
WIRE 1552 288 1552 256
WIRE 1552 288 1408 288
WIRE 1104 320 1104 288
WIRE 1552 320 1552 288
WIRE 1808 384 1808 352
WIRE 1984 384 1984 256
WIRE 1984 384 1808 384
WIRE 2144 384 2144 240
WIRE 2144 384 1984 384
WIRE 96 400 96 368
WIRE 192 400 96 400
WIRE 288 400 192 400
WIRE 192 416 192 400
WIRE 288 416 288 400
WIRE 96 432 96 400
WIRE 768 448 768 416
WIRE 288 512 288 496
WIRE 368 512 288 512
WIRE 416 512 368 512
WIRE 560 512 528 512
WIRE 640 512 624 512
WIRE 720 512 640 512
WIRE 1232 512 1200 512
WIRE 1360 512 1312 512
WIRE 288 528 288 512
WIRE 368 528 368 512
WIRE 640 544 640 512
WIRE 768 560 768 544
WIRE 784 560 768 560
WIRE 864 560 848 560
WIRE 768 576 768 560
WIRE 864 592 864 560
WIRE 944 624 896 624
WIRE 1088 624 1008 624
WIRE 1200 624 1200 512
WIRE 1200 624 1168 624
WIRE 1232 624 1200 624
WIRE 1360 640 1360 512
WIRE 1360 640 1296 640
WIRE 1408 640 1360 640
WIRE 1520 640 1488 640
WIRE 1600 640 1584 640
WIRE 1664 640 1600 640
WIRE 1232 656 1184 656
WIRE 1600 656 1600 640
WIRE 1184 688 1184 656
FLAG 96 272 0
FLAG 96 512 0
FLAG 192 480 0
FLAG 288 608 0
FLAG 368 592 0
FLAG 96 368 V+
FLAG 416 512 Vref
FLAG 464 368 0
FLAG 464 16 V+
FLAG 912 208 V+
FLAG 912 144 0
FLAG 768 240 0
FLAG 1104 384 0
FLAG 1312 80 V+
FLAG 1312 16 0
FLAG 1552 400 0
FLAG 2032 272 V+
FLAG 2032 208 0
FLAG 2032 -64 V+
FLAG 2032 -128 0
FLAG 1920 -16 Vref
FLAG 1920 320 Vref
FLAG 528 32 Vref
FLAG 1408 288 A
FLAG 1264 608 V+
FLAG 1264 672 0
FLAG 1184 688 Vref
FLAG 1600 736 0
FLAG 528 512 A
FLAG 768 656 0
FLAG 768 416 V+
FLAG 640 624 Vref
FLAG 864 736 0
SYMBOL voltage 96 176 R0
WINDOW 123 24 124 Left 2
WINDOW 39 0 0 Left 2
SYMATTR Value2 AC 1
SYMATTR InstName V1
SYMATTR Value SINE(0 1 1000)
SYMBOL voltage 96 416 R0
WINDOW 123 0 0 Left 2
WINDOW 39 0 0 Left 2
SYMATTR InstName V2
SYMATTR Value 9
SYMBOL cap 176 416 R0
SYMATTR InstName C1
SYMATTR Value 220µ
SYMBOL res 272 400 R0
SYMATTR InstName R1
SYMATTR Value 10k
SYMBOL res 272 512 R0
SYMATTR InstName R2
SYMATTR Value 10k
SYMBOL cap 352 528 R0
SYMATTR InstName C2
SYMATTR Value 100µ
SYMBOL EXTRA\\AudioOpamp\\TI\\TL072_TI 912 176 M180
SYMATTR InstName U1
SYMBOL njf 416 48 R0
SYMATTR InstName J1
SYMATTR Value J201_0.8
SYMBOL cap 304 96 R90
WINDOW 0 0 32 VBottom 2
WINDOW 3 32 32 VTop 2
SYMATTR InstName C3
SYMATTR Value 1µ
SYMBOL res 320 128 R0
SYMATTR InstName R3
SYMATTR Value 1Meg
SYMBOL res 448 160 R0
SYMATTR InstName R4
SYMATTR Value 1k
SYMBOL res 448 272 R0
SYMATTR InstName R5
SYMATTR Value 22k
SYMBOL cap 624 144 R90
WINDOW 0 0 32 VBottom 2
WINDOW 3 32 32 VTop 2
SYMATTR InstName C4
SYMATTR Value 22n
SYMBOL res 624 176 R0
SYMATTR InstName R6
SYMATTR Value 15k
SYMBOL cap 624 64 R0
SYMATTR InstName C5
SYMATTR Value 10n
SYMBOL res 624 16 R90
WINDOW 0 0 56 VBottom 2
WINDOW 3 32 56 VTop 2
SYMATTR InstName R7
SYMATTR Value 470k
SYMBOL res 768 16 R90
WINDOW 0 0 56 VBottom 2
WINDOW 3 32 56 VTop 2
SYMATTR InstName R9
SYMATTR Value 33k
SYMBOL res 752 48 R0
SYMATTR InstName R10
SYMATTR Value 100k
SYMBOL cap 752 176 R0
SYMATTR InstName C6
SYMATTR Value 220p
SYMBOL cap 896 16 R90
WINDOW 0 0 32 VBottom 2
WINDOW 3 32 32 VTop 2
SYMATTR InstName C7
SYMATTR Value 3.3n
SYMBOL cap 1072 160 R90
WINDOW 0 0 32 VBottom 2
WINDOW 3 32 32 VTop 2
SYMATTR InstName C8
SYMATTR Value 10n
SYMBOL res 1088 16 R90
WINDOW 0 0 56 VBottom 2
WINDOW 3 32 56 VTop 2
SYMATTR InstName R11
SYMATTR Value 220k
SYMBOL cap 1088 80 R0
SYMATTR InstName C9
SYMATTR Value 3.3n
SYMBOL res 1088 192 R0
SYMATTR InstName R12
SYMATTR Value 10k
SYMBOL cap 1088 320 R0
SYMATTR InstName C10
SYMATTR Value 47n
SYMBOL res 1248 160 R90
WINDOW 0 0 56 VBottom 2
WINDOW 3 32 56 VTop 2
SYMATTR InstName R13
SYMATTR Value 100
SYMBOL EXTRA\\AudioOpamp\\TI\\TL072_TI 1312 48 M180
SYMATTR InstName U2
SYMBOL res 1408 160 R90
WINDOW 0 0 56 VBottom 2
WINDOW 3 32 56 VTop 2
SYMATTR InstName R14
SYMATTR Value 3.6k
SYMBOL res 1536 32 R90
WINDOW 0 0 56 VBottom 2
WINDOW 3 32 56 VTop 2
SYMATTR InstName R15
SYMATTR Value 2.7k
SYMBOL cap 1536 80 R0
SYMATTR InstName C11
SYMATTR Value 1µ
SYMBOL res 1536 160 R0
SYMATTR InstName R16
SYMATTR Value 4.7k
SYMBOL res 1536 304 R0
SYMATTR InstName R17
SYMATTR Value 47k
SYMBOL res 1696 192 R180
WINDOW 0 36 76 Left 2
WINDOW 3 36 40 Left 2
SYMATTR InstName R18
SYMATTR Value 1k
SYMBOL res 1696 -128 R90
WINDOW 0 0 56 VBottom 2
WINDOW 3 32 56 VTop 2
SYMATTR InstName R19
SYMATTR Value 1k
SYMBOL cap 1792 208 R90
WINDOW 0 0 32 VBottom 2
WINDOW 3 32 32 VTop 2
SYMATTR InstName C12
SYMATTR Value 6.8n
SYMBOL cap 1888 208 R90
WINDOW 0 0 32 VBottom 2
WINDOW 3 32 32 VTop 2
SYMATTR InstName C13
SYMATTR Value 6.8n
SYMBOL res 1904 224 R0
SYMATTR InstName R21
SYMATTR Value 470k
SYMBOL EXTRA\\AudioOpamp\\TI\\TL072_TI 2032 240 M180
SYMATTR InstName U3
SYMBOL res 1792 256 R0
SYMATTR InstName R22
SYMATTR Value 470
SYMBOL cap 1792 -128 R90
WINDOW 0 0 32 VBottom 2
WINDOW 3 32 32 VTop 2
SYMATTR InstName C14
SYMATTR Value 22n
SYMBOL cap 1888 -128 R90
WINDOW 0 0 32 VBottom 2
WINDOW 3 32 32 VTop 2
SYMATTR InstName C15
SYMATTR Value 22n
SYMBOL res 1904 -112 R0
SYMATTR InstName R24
SYMATTR Value 470k
SYMBOL EXTRA\\AudioOpamp\\TI\\TL072_TI 2032 -96 M180
SYMATTR InstName U4
SYMBOL res 1792 -80 R0
SYMATTR InstName R25
SYMATTR Value 510
SYMBOL pot 848 592 R0
SYMATTR InstName U5
SYMATTR Value R=100k
SYMATTR Value2 W=0.5
SYMBOL cap 1008 608 R90
WINDOW 0 0 32 VBottom 2
WINDOW 3 32 32 VTop 2
SYMATTR InstName C16
SYMATTR Value 1µ
SYMBOL res 1184 608 R90
WINDOW 0 0 56 VBottom 2
WINDOW 3 32 56 VTop 2
SYMATTR InstName R8
SYMATTR Value 22k
SYMBOL EXTRA\\AudioOpamp\\TI\\TL072_TI 1264 640 R0
SYMATTR InstName U6
SYMBOL res 1328 496 R90
WINDOW 0 0 56 VBottom 2
WINDOW 3 32 56 VTop 2
SYMATTR InstName R20
SYMATTR Value 100k
SYMBOL res 1504 624 R90
WINDOW 0 0 56 VBottom 2
WINDOW 3 32 56 VTop 2
SYMATTR InstName R23
SYMATTR Value 6.8
SYMBOL cap 1584 624 R90
WINDOW 0 0 32 VBottom 2
WINDOW 3 32 32 VTop 2
SYMATTR InstName C17
SYMATTR Value 220µ
SYMBOL res 1584 640 R0
SYMATTR InstName R26
SYMATTR Value 10k
SYMBOL njf 720 448 R0
SYMATTR InstName J2
SYMATTR Value J201_0.8
SYMBOL res 624 528 R0
SYMATTR InstName R27
SYMATTR Value 1Meg
SYMBOL res 752 560 R0
SYMATTR InstName R28
SYMATTR Value 10k
SYMBOL cap 624 496 R90
WINDOW 0 0 32 VBottom 2
WINDOW 3 32 32 VTop 2
SYMATTR InstName C18
SYMATTR Value 22n
SYMBOL cap 848 544 R90
WINDOW 0 0 32 VBottom 2
WINDOW 3 32 32 VTop 2
SYMATTR InstName C19
SYMATTR Value 470n
SYMBOL res 848 640 R0
SYMATTR InstName R29
SYMATTR Value 4.7k
TEXT 160 -40 Left 2 !;tran 0 20m 10m
TEXT 160 -8 Left 2 !.ac dec 500 10 10000
TEXT 880 464 Left 2 !;.step param W 0 1 0.1
