Version 4
SHEET 1 2840 1268
WIRE 720 -144 720 -192
WIRE 720 -144 624 -144
WIRE 720 -128 720 -144
WIRE 624 -112 624 -144
WIRE 944 96 896 96
WIRE 1200 96 1200 64
WIRE 1200 96 1024 96
WIRE 1264 96 1200 96
WIRE 1360 96 1328 96
WIRE 1200 160 1200 96
WIRE 544 208 464 208
WIRE 640 208 544 208
WIRE 672 208 640 208
WIRE 768 208 752 208
WIRE 896 208 896 96
WIRE 896 208 832 208
WIRE 1008 208 896 208
WIRE 1120 208 1008 208
WIRE 1008 224 1008 208
WIRE 464 240 464 208
WIRE 640 240 640 208
WIRE 896 240 896 208
WIRE 544 288 544 208
WIRE 1200 288 1200 256
WIRE 1344 288 1200 288
WIRE 1008 320 1008 288
WIRE 1200 320 1200 288
WIRE 1344 320 1344 288
WIRE 1344 400 1344 384
FLAG 544 368 0
FLAG 624 -32 0
FLAG 720 -64 0
FLAG 896 320 0
FLAG 1200 400 0
FLAG 720 -192 V+
FLAG 640 320 0
FLAG 1008 320 0
FLAG 1200 -16 V+
FLAG 1344 400 0
SYMBOL voltage 544 272 R0
WINDOW 123 24 124 Left 2
WINDOW 39 0 0 Left 2
SYMATTR Value2 AC 1
SYMATTR InstName V1
SYMATTR Value SINE(0 1 666)
SYMBOL voltage 624 -128 R0
WINDOW 123 0 0 Left 2
WINDOW 39 0 0 Left 2
SYMATTR InstName V2
SYMATTR Value 9
SYMBOL cap 704 -128 R0
SYMATTR InstName C1
SYMATTR Value 220µ
SYMBOL res 880 224 R0
SYMATTR InstName R3
SYMATTR Value 2.2Meg
SYMBOL res 1184 304 R0
SYMATTR InstName R4
SYMATTR Value 4.7k
SYMBOL res 1184 -32 R0
SYMATTR InstName R5
SYMATTR Value 10k
SYMBOL res 768 192 R90
WINDOW 0 0 56 VBottom 2
WINDOW 3 32 56 VTop 2
SYMATTR InstName R1
SYMATTR Value 10k
SYMBOL res 624 224 R0
SYMATTR InstName R2
SYMATTR Value 1Meg
SYMBOL cap 832 192 R90
WINDOW 0 0 32 VBottom 2
WINDOW 3 32 32 VTop 2
SYMATTR InstName C4
SYMATTR Value 10n
SYMBOL cap 992 224 R0
SYMATTR InstName C5
SYMATTR Value 47p
SYMBOL res 1040 80 R90
WINDOW 0 0 56 VBottom 2
WINDOW 3 32 56 VTop 2
SYMATTR InstName R6
SYMATTR Value 2.2Meg
SYMBOL cap 1328 320 R0
SYMATTR InstName C2
SYMATTR Value 10µ
SYMBOL cap 1328 80 R90
WINDOW 0 0 32 VBottom 2
WINDOW 3 32 32 VTop 2
SYMATTR InstName C3
SYMATTR Value 100n
SYMBOL EXTRA\\Philips\\NMOSFET\\2N7000 1168 208 R0
SYMATTR InstName U1
TEXT 536 64 Left 2 !.tran 0 20m 10m
TEXT 536 32 Left 2 !;ac dec 1000 10 10000
TEXT 536 96 Left 2 !;.step param W 0 1 0.2
