Version 4
SHEET 1 1716 680
WIRE 560 -272 480 -272
WIRE 656 -272 560 -272
WIRE 656 -256 656 -272
WIRE 560 -240 560 -272
WIRE 560 -144 560 -160
WIRE 784 -80 784 -112
WIRE 160 -64 160 -96
WIRE 304 -32 272 -32
WIRE 384 -32 368 -32
WIRE 400 -32 384 -32
WIRE 544 -32 480 -32
WIRE 1184 -32 1184 -64
WIRE 544 -16 544 -32
WIRE 784 32 784 0
WIRE 832 32 784 32
WIRE 960 32 896 32
WIRE 976 32 960 32
WIRE 1056 32 1040 32
WIRE 1280 32 1280 -64
WIRE 160 48 160 16
WIRE 272 48 272 -32
WIRE 272 48 160 48
WIRE 304 48 272 48
WIRE 384 48 384 -32
WIRE 384 48 368 48
WIRE 416 48 384 48
WIRE 544 48 496 48
WIRE 656 48 544 48
WIRE 784 48 784 32
WIRE 960 64 960 32
WIRE 160 80 160 48
WIRE 544 80 544 48
WIRE 656 80 656 48
WIRE 1072 96 992 96
WIRE 1184 96 1184 48
WIRE 1184 96 1136 96
WIRE 1232 96 1184 96
WIRE 736 112 688 112
WIRE -16 144 -208 144
WIRE 80 144 48 144
WIRE 112 144 80 144
WIRE 1184 144 1184 96
WIRE 784 160 784 144
WIRE 864 160 784 160
WIRE 960 160 960 128
WIRE -208 176 -208 144
WIRE 80 176 80 144
WIRE 784 176 784 160
WIRE 160 192 160 176
WIRE 240 192 160 192
WIRE 304 192 240 192
WIRE 544 192 544 144
WIRE 656 192 656 144
WIRE 864 192 864 160
WIRE 160 208 160 192
WIRE 1280 208 1280 128
WIRE 1328 208 1280 208
WIRE 1408 208 1392 208
WIRE 1536 208 1408 208
WIRE 240 224 240 192
WIRE 1408 224 1408 208
WIRE 1280 240 1280 208
WIRE 304 256 304 192
WIRE 304 256 272 256
WIRE -208 272 -208 256
WIRE 80 272 80 256
WIRE 784 272 784 256
WIRE 864 272 864 256
WIRE 864 272 784 272
WIRE 784 288 784 272
WIRE 544 304 544 272
WIRE 160 320 160 288
WIRE 176 320 160 320
WIRE 240 320 240 288
WIRE 1408 320 1408 304
WIRE 160 352 160 320
FLAG 80 272 0
FLAG 160 352 0
FLAG 544 -16 0
FLAG 544 304 0
FLAG 784 288 0
FLAG 960 160 0
FLAG 1408 320 0
FLAG 560 -144 0
FLAG -208 272 0
FLAG 1280 320 0
FLAG 656 -192 0
FLAG 1184 224 0
FLAG 480 -272 V+
FLAG 160 -96 V+
FLAG 784 -112 V+
FLAG 1184 -64 V+
FLAG 1280 -64 V+
FLAG 656 272 0
FLAG 80 80 0
FLAG 480 176 0
SYMBOL res 64 160 R0
WINDOW 3 -43 79 Left 2
WINDOW 0 -37 41 Left 2
SYMATTR Value 1Meg
SYMATTR InstName R1
SYMBOL cap 48 128 R90
WINDOW 0 0 32 VBottom 2
WINDOW 3 32 32 VTop 2
SYMATTR InstName C1
SYMATTR Value 220n
SYMBOL res 144 192 R0
SYMATTR InstName R2
SYMATTR Value 2.2k
SYMBOL cap 240 304 R90
WINDOW 0 0 32 VBottom 2
WINDOW 3 32 32 VTop 2
SYMATTR InstName C2
SYMATTR Value 47µ
SYMBOL res 144 -80 R0
SYMATTR InstName R3
SYMATTR Value 13k
SYMBOL cap 368 32 R90
WINDOW 0 0 32 VBottom 2
WINDOW 3 32 32 VTop 2
SYMATTR InstName C3
SYMATTR Value 6.8n
SYMBOL cap 368 -48 R90
WINDOW 0 0 32 VBottom 2
WINDOW 3 32 32 VTop 2
SYMATTR InstName C4
SYMATTR Value 4.7µ
SYMBOL res 512 32 R90
WINDOW 0 0 56 VBottom 2
WINDOW 3 32 56 VTop 2
SYMATTR InstName R4
SYMATTR Value 22k
SYMBOL res 496 -48 R90
WINDOW 0 0 56 VBottom 2
WINDOW 3 32 56 VTop 2
SYMATTR InstName R5
SYMATTR Value 2.2Meg
SYMBOL cap 528 80 R0
SYMATTR InstName C5
SYMATTR Value 10n
SYMBOL res 528 176 R0
SYMATTR InstName R6
SYMATTR Value 2.2Meg
SYMBOL njf 736 48 R0
SYMATTR InstName J2
SYMATTR Value J201_1.3
SYMBOL res 768 160 R0
SYMATTR InstName R7
SYMATTR Value 2.7k
SYMBOL cap 848 192 R0
SYMATTR InstName C6
SYMATTR Value 220µ
SYMBOL res 768 -96 R0
SYMATTR InstName R8
SYMATTR Value 12k
SYMBOL cap 896 16 R90
WINDOW 0 0 32 VBottom 2
WINDOW 3 32 32 VTop 2
SYMATTR InstName C7
SYMATTR Value 1µ
SYMBOL cap 1136 80 R90
WINDOW 0 0 32 VBottom 2
WINDOW 3 32 32 VTop 2
SYMATTR InstName C8
SYMATTR Value 220n
SYMBOL njf 1232 32 R0
SYMATTR InstName J3
SYMATTR Value J201_0.8
SYMBOL cap 1392 192 R90
WINDOW 0 0 32 VBottom 2
WINDOW 3 32 32 VTop 2
SYMATTR InstName C9
SYMATTR Value 2.2µ
SYMBOL res 1392 208 R0
SYMATTR InstName R12
SYMATTR Value 100k
SYMBOL voltage 560 -256 R0
WINDOW 123 0 0 Left 2
WINDOW 39 0 0 Left 2
SYMATTR InstName V1
SYMATTR Value 9
SYMBOL voltage -208 160 R0
WINDOW 123 24 132 Left 2
WINDOW 39 0 0 Left 2
SYMATTR Value2 AC 1
SYMATTR InstName V2
SYMATTR Value SINE(0 0.5 500)
SYMBOL res 1264 224 R0
SYMATTR InstName R14
SYMATTR Value 4.7k
SYMBOL pot 224 224 R0
SYMATTR InstName U1
SYMATTR Value R=5k
SYMATTR Value2 W=0.5
SYMBOL pot 640 80 R0
SYMATTR InstName U2
SYMATTR Value R=100k
SYMATTR Value2 W=0.5
SYMBOL pot 944 64 R0
SYMATTR InstName U3
SYMATTR Value R=100k
SYMATTR Value2 W=0.5
SYMBOL njf 112 80 R0
SYMATTR InstName J1
SYMATTR Value J201_1.3
SYMBOL cap 640 -256 R0
SYMATTR InstName C10
SYMATTR Value 220µ
SYMBOL cap 1040 16 R90
WINDOW 0 0 32 VBottom 2
WINDOW 3 32 32 VTop 2
SYMATTR InstName C11
SYMATTR Value 330p
SYMBOL res 1168 -48 R0
SYMATTR InstName R10
SYMATTR Value 3.3Meg
SYMBOL res 1168 128 R0
SYMATTR InstName R11
SYMATTR Value 1Meg
SYMBOL res 640 176 R0
SYMATTR InstName R9
SYMATTR Value 33k
TEXT -96 -160 Left 2 !.ac dec 500 10 10000
TEXT -96 -128 Left 2 !;tran 20m
TEXT -96 -192 Left 2 !;.step param W 0 1 0.2
