Version 4
SHEET 1 2840 1268
WIRE 720 -144 720 -192
WIRE 720 -144 624 -144
WIRE 720 -128 720 -144
WIRE 624 -112 624 -144
WIRE 1600 -16 1600 -32
WIRE 1664 -16 1600 -16
WIRE 1792 -16 1728 -16
WIRE 1600 0 1600 -16
WIRE 1488 48 1488 16
WIRE 1488 48 1440 48
WIRE 1536 48 1488 48
WIRE 1040 96 1040 64
WIRE 1168 96 1040 96
WIRE 1232 96 1168 96
WIRE 1344 96 1296 96
WIRE 1376 96 1344 96
WIRE 1168 112 1168 96
WIRE 1040 160 1040 96
WIRE 1440 176 1440 144
WIRE 624 208 544 208
WIRE 720 208 624 208
WIRE 784 208 720 208
WIRE 896 208 896 160
WIRE 896 208 848 208
WIRE 976 208 896 208
WIRE 1600 224 1600 96
WIRE 544 240 544 208
WIRE 720 240 720 208
WIRE 896 240 896 208
WIRE 1344 256 1344 96
WIRE 1392 256 1344 256
WIRE 1568 256 1472 256
WIRE 1664 256 1632 256
WIRE 1776 256 1744 256
WIRE 624 288 624 208
WIRE 1040 288 1040 256
WIRE 1072 288 1040 288
WIRE 1776 288 1776 256
WIRE 1040 304 1040 288
WIRE 1072 336 1072 288
WIRE 1040 384 1040 368
FLAG 624 368 0
FLAG 624 -32 0
FLAG 720 -64 0
FLAG 896 320 0
FLAG 1040 464 0
FLAG 720 -192 V+
FLAG 720 320 0
FLAG 1040 -16 V+
FLAG 896 80 V+
FLAG 1488 -64 V+
FLAG 1600 -112 V+
FLAG 1440 176 0
FLAG 1776 352 0
FLAG 1168 192 0
SYMBOL voltage 624 272 R0
WINDOW 123 24 124 Left 2
WINDOW 39 0 0 Left 2
SYMATTR Value2 AC 1
SYMATTR InstName V1
SYMATTR Value SINE(0 0.2 666)
SYMBOL voltage 624 -128 R0
WINDOW 123 0 0 Left 2
WINDOW 39 0 0 Left 2
SYMATTR InstName V2
SYMATTR Value 9
SYMBOL cap 704 -128 R0
SYMATTR InstName C1
SYMATTR Value 220µ
SYMBOL res 880 224 R0
SYMATTR InstName R3
SYMATTR Value 47k
SYMBOL res 1024 368 R0
SYMATTR InstName R4
SYMATTR Value 390
SYMBOL res 1024 -32 R0
SYMATTR InstName R5
SYMATTR Value 10k
SYMBOL res 704 224 R0
SYMATTR InstName R2
SYMATTR Value 2.2Meg
SYMBOL cap 1296 80 R90
WINDOW 0 0 32 VBottom 2
WINDOW 3 32 32 VTop 2
SYMATTR InstName C3
SYMATTR Value 220n
SYMBOL npn 976 160 R0
SYMATTR InstName Q1
SYMATTR Value 2N5089
SYMBOL pot 1024 304 R0
SYMATTR InstName U1
SYMATTR Value R=1k
SYMATTR Value2 W=0.5
SYMBOL res 880 64 R0
SYMATTR InstName R1
SYMATTR Value 470k
SYMBOL cap 848 192 R90
WINDOW 0 0 32 VBottom 2
WINDOW 3 32 32 VTop 2
SYMATTR InstName C2
SYMATTR Value 100n
SYMBOL npn 1376 48 R0
SYMATTR InstName Q2
SYMATTR Value 2N2222
SYMBOL npn 1536 0 R0
SYMATTR InstName Q3
SYMATTR Value 2N2222
SYMBOL res 1472 -80 R0
SYMATTR InstName R6
SYMATTR Value 33k
SYMBOL res 1584 -128 R0
SYMATTR InstName R7
SYMATTR Value 100k
SYMBOL cap 1728 -32 R90
WINDOW 0 0 32 VBottom 2
WINDOW 3 32 32 VTop 2
SYMATTR InstName C4
SYMATTR Value 100n
SYMBOL res 1488 240 R90
WINDOW 0 0 56 VBottom 2
WINDOW 3 32 56 VTop 2
SYMATTR InstName R8
SYMATTR Value 100k
SYMBOL pot 1568 272 R270
SYMATTR InstName U2
SYMATTR Value2 W=0.5
SYMATTR SpiceModel pot_log
SYMBOL res 1760 240 R90
WINDOW 0 0 56 VBottom 2
WINDOW 3 32 56 VTop 2
SYMATTR InstName R9
SYMATTR Value 1k
SYMBOL cap 1760 288 R0
SYMATTR InstName C5
SYMATTR Value 100n
SYMBOL res 1152 96 R0
SYMATTR InstName R10
SYMATTR Value 2.2Meg
TEXT 536 64 Left 2 !.tran 0 20m 10m
TEXT 536 32 Left 2 !;ac dec 1000 10 10000
TEXT 536 96 Left 2 !;.step param W 0 1 0.2
