Version 4
SHEET 1 4084 868
WIRE 1008 -144 1008 -160
WIRE 1008 -144 896 -144
WIRE 704 -112 624 -112
WIRE 816 -112 704 -112
WIRE 896 -112 896 -144
WIRE 624 -96 624 -112
WIRE 704 -80 704 -112
WIRE 1008 -80 1008 -144
WIRE 896 -48 896 -80
WIRE 816 -16 816 -112
WIRE 1568 -16 1568 -32
WIRE 1616 -16 1568 -16
WIRE 1744 -16 1680 -16
WIRE 1744 0 1744 -16
WIRE 320 16 224 16
WIRE 448 16 448 -32
WIRE 448 16 400 16
WIRE 480 16 448 16
WIRE 592 16 544 16
WIRE 704 16 704 0
WIRE 704 16 592 16
WIRE 928 16 848 16
WIRE 1568 16 1568 -16
WIRE 704 32 704 16
WIRE 928 32 928 16
WIRE 1872 32 1776 32
WIRE 592 48 592 16
WIRE 448 64 448 16
WIRE 1136 64 1136 48
WIRE 1216 64 1136 64
WIRE 1312 64 1280 64
WIRE 1360 64 1312 64
WIRE 1472 64 1440 64
WIRE 1504 64 1472 64
WIRE 1312 80 1312 64
WIRE 1136 96 1136 64
WIRE 1472 96 1472 64
WIRE 1568 96 1568 80
WIRE 1680 96 1568 96
WIRE 1568 112 1568 96
WIRE 1680 112 1680 96
WIRE 128 144 112 144
WIRE 224 144 224 16
WIRE 224 144 192 144
WIRE 304 144 224 144
WIRE 400 144 304 144
WIRE 704 144 704 112
WIRE 816 144 816 48
WIRE 816 144 704 144
WIRE 928 144 928 112
WIRE 1024 144 928 144
WIRE 1072 144 1024 144
WIRE 224 160 224 144
WIRE 816 160 816 144
WIRE 1136 176 1136 160
WIRE 1248 176 1136 176
WIRE 112 192 112 144
WIRE 304 192 304 144
WIRE 336 192 304 192
WIRE 448 192 448 160
WIRE 448 192 400 192
WIRE 928 192 928 144
WIRE 1024 192 1024 144
WIRE 1136 192 1136 176
WIRE 1248 192 1248 176
WIRE 816 240 816 224
WIRE 448 256 448 192
WIRE 416 288 384 288
WIRE 384 336 384 288
WIRE 448 336 448 320
WIRE 448 336 384 336
WIRE 448 352 448 336
FLAG 112 272 0
FLAG 448 -112 V+
FLAG 224 240 0
FLAG 448 352 0
FLAG 592 128 0
FLAG 624 -32 0
FLAG 816 320 0
FLAG 928 272 0
FLAG 1024 256 0
FLAG 1136 272 0
FLAG 1248 256 0
FLAG 1136 -32 V+
FLAG 1312 160 0
FLAG 1568 192 0
FLAG 1680 176 0
FLAG 1568 -112 V+
FLAG 1472 160 0
FLAG 1744 64 0
FLAG 1008 0 0
FLAG 896 -48 0
FLAG 1008 -160 V+
SYMBOL voltage 112 176 R0
WINDOW 0 40 89 Left 2
WINDOW 3 30 123 Left 2
WINDOW 123 31 159 Left 2
WINDOW 39 0 0 Left 2
SYMATTR InstName V1
SYMATTR Value SINE(0 600m 250)
SYMATTR Value2 AC 1
SYMBOL res 208 144 R0
SYMATTR InstName R1
SYMATTR Value 1Meg
SYMBOL pot 464 320 R180
SYMATTR InstName U8
SYMATTR Value R=5k
SYMATTR Value2 W=0.5
SYMBOL nmos 400 64 R0
SYMATTR InstName M1
SYMATTR Value 2N7000
SYMBOL res 432 -128 R0
SYMATTR InstName R2
SYMATTR Value 5.1k
SYMBOL res 416 0 R90
WINDOW 0 0 56 VBottom 2
WINDOW 3 32 56 VTop 2
SYMATTR InstName R3
SYMATTR Value 1Meg
SYMBOL diode 400 176 R90
WINDOW 0 0 32 VBottom 2
WINDOW 3 32 32 VTop 2
SYMATTR InstName D1
SYMATTR Value 1N4148
SYMBOL cap 192 128 R90
WINDOW 0 0 32 VBottom 2
WINDOW 3 32 32 VTop 2
SYMATTR InstName C1
SYMATTR Value 33n
SYMBOL cap 544 0 R90
WINDOW 0 0 32 VBottom 2
WINDOW 3 32 32 VTop 2
SYMATTR InstName C2
SYMATTR Value 10n
SYMBOL res 576 32 R0
SYMATTR InstName R4
SYMATTR Value 47k
SYMBOL res 688 16 R0
SYMATTR InstName R5
SYMATTR Value 10k
SYMBOL res 688 -96 R0
SYMATTR InstName R6
SYMATTR Value 10k
SYMBOL pot 800 -16 R0
SYMATTR InstName U1
SYMATTR Value R=50k
SYMATTR Value2 W=0.5
SYMBOL cap 608 -96 R0
SYMATTR InstName C3
SYMATTR Value 10n
SYMBOL cap 800 160 R0
SYMATTR InstName C4
SYMATTR Value 82n
SYMBOL res 800 224 R0
SYMATTR InstName R7
SYMATTR Value 1k
SYMBOL res 912 16 R0
SYMATTR InstName R8
SYMATTR Value 100k
SYMBOL res 912 176 R0
SYMATTR InstName R9
SYMATTR Value 1Meg
SYMBOL cap 1008 192 R0
SYMATTR InstName C5
SYMATTR Value 1n
SYMBOL FET\\njf2 1072 96 R0
SYMATTR InstName J1
SYMATTR Value J201
SYMBOL res 1120 176 R0
SYMATTR InstName R10
SYMATTR Value 1.5k
SYMBOL cap 1232 192 R0
SYMATTR InstName C6
SYMATTR Value 10µ
SYMBOL res 1120 -48 R0
SYMATTR InstName R11
SYMATTR Value 20k
SYMBOL cap 1280 48 R90
WINDOW 0 0 32 VBottom 2
WINDOW 3 32 32 VTop 2
SYMATTR InstName C7
SYMATTR Value 1n
SYMBOL res 1296 64 R0
SYMATTR InstName R12
SYMATTR Value 1Meg
SYMBOL res 1456 48 R90
WINDOW 0 0 56 VBottom 2
WINDOW 3 32 56 VTop 2
SYMATTR InstName R13
SYMATTR Value 33k
SYMBOL cap 1456 96 R0
SYMATTR InstName C8
SYMATTR Value 470p
SYMBOL FET\\njf2 1504 16 R0
SYMATTR InstName J2
SYMATTR Value J201
SYMBOL res 1552 96 R0
SYMATTR InstName R14
SYMATTR Value 390
SYMBOL cap 1664 112 R0
SYMATTR InstName C10
SYMATTR Value 470n
SYMBOL res 1552 -128 R0
SYMATTR InstName R15
SYMATTR Value 6.5k
SYMBOL cap 1680 -32 R90
WINDOW 0 0 32 VBottom 2
WINDOW 3 32 32 VTop 2
SYMATTR InstName C11
SYMATTR Value 47n
SYMBOL pot 1728 0 R0
SYMATTR InstName U2
SYMATTR Value R=100k
SYMATTR Value2 W=0.5
SYMBOL voltage 1008 -96 R0
WINDOW 123 0 0 Left 2
WINDOW 39 0 0 Left 2
SYMATTR InstName V3
SYMATTR Value 9
SYMBOL cap 880 -112 R0
SYMATTR InstName C12
SYMATTR Value 220µ
TEXT 512 224 Left 2 !;ac dec 10000 20 10k
TEXT 512 272 Left 2 !.tran 0 30ms 0 1u
TEXT 1088 -136 Left 2 !;.step param W list 0.05, 0.25, 0.5, 0.75, 0.95
