Version 4
SHEET 1 3188 1764
WIRE 16 -832 -64 -832
WIRE 352 -832 352 -864
WIRE 352 -832 16 -832
WIRE 464 -832 352 -832
WIRE 496 -832 464 -832
WIRE 608 -832 576 -832
WIRE 720 -832 608 -832
WIRE 16 -816 16 -832
WIRE 352 -800 352 -832
WIRE 720 -800 720 -832
WIRE -64 -784 -64 -832
WIRE 464 -752 464 -832
WIRE 496 -752 464 -752
WIRE 608 -752 608 -832
WIRE 608 -752 560 -752
WIRE 240 -688 192 -688
WIRE 352 -688 352 -720
WIRE 352 -688 304 -688
WIRE 608 -688 576 -688
WIRE 720 -688 720 -720
WIRE 720 -688 688 -688
WIRE 752 -688 720 -688
WIRE 848 -688 816 -688
WIRE 944 -688 912 -688
WIRE 976 -688 944 -688
WIRE 1072 -688 1040 -688
WIRE 1232 -688 1072 -688
WIRE 1488 -688 1488 -704
WIRE 1552 -688 1488 -688
WIRE 1648 -688 1616 -688
WIRE 1488 -672 1488 -688
WIRE 944 -656 944 -688
WIRE 1072 -656 1072 -688
WIRE 1232 -656 1232 -688
WIRE 1648 -656 1648 -688
WIRE 720 -640 720 -688
WIRE 1296 -624 1264 -624
WIRE 1392 -624 1392 -704
WIRE 1392 -624 1360 -624
WIRE 1424 -624 1392 -624
WIRE 192 -592 192 -688
WIRE 224 -592 192 -592
WIRE 352 -592 352 -688
WIRE 352 -592 304 -592
WIRE 432 -592 352 -592
WIRE 480 -592 432 -592
WIRE 576 -592 576 -688
WIRE 576 -592 544 -592
WIRE 656 -592 576 -592
WIRE 1392 -576 1392 -624
WIRE 944 -544 944 -576
WIRE 1008 -544 944 -544
WIRE 1072 -544 1072 -576
WIRE 1072 -544 1008 -544
WIRE 352 -528 352 -592
WIRE 1008 -512 1008 -544
WIRE 720 -496 720 -544
WIRE 48 -480 -64 -480
WIRE 112 -480 48 -480
WIRE 192 -480 192 -592
WIRE 192 -480 176 -480
WIRE 288 -480 192 -480
WIRE -64 -464 -64 -480
WIRE 48 -464 48 -480
WIRE 432 -432 432 -592
WIRE 480 -432 432 -432
WIRE 880 -432 880 -656
WIRE 880 -432 544 -432
WIRE 1008 -432 1008 -448
WIRE 1040 -432 1008 -432
WIRE 1008 -416 1008 -432
WIRE 352 -384 352 -432
WIRE 1040 -384 1040 -432
FLAG -64 -384 0
FLAG -64 -704 0
FLAG 16 -752 0
FLAG 48 -384 0
FLAG 352 -384 0
FLAG 720 -496 0
FLAG 1008 -352 0
FLAG 1232 -592 0
FLAG 1648 -576 0
FLAG 1488 -496 0
FLAG 1392 -496 0
FLAG 352 -864 V+
FLAG 1392 -784 V+
FLAG 1488 -784 V+
SYMBOL voltage -64 -480 R0
WINDOW 0 -80 16 Left 2
WINDOW 3 -219 63 Left 2
WINDOW 123 -108 110 Left 2
WINDOW 39 0 0 Left 2
SYMATTR InstName V1
SYMATTR Value SINE(0 1 1000)
SYMATTR Value2 AC 1
SYMBOL cap 0 -816 R0
SYMATTR InstName C12
SYMATTR Value 220µ
SYMBOL voltage -64 -800 R0
WINDOW 123 0 0 Left 2
WINDOW 39 0 0 Left 2
SYMATTR InstName V2
SYMATTR Value 9
SYMBOL res 32 -480 R0
SYMATTR InstName R42
SYMATTR Value 1Meg
SYMBOL cap 176 -496 R90
WINDOW 0 0 32 VBottom 2
WINDOW 3 32 32 VTop 2
SYMATTR InstName C34
SYMATTR Value 47n
SYMBOL npn 288 -528 R0
SYMATTR InstName Q1
SYMATTR Value 2N3904
SYMBOL res 320 -608 R90
WINDOW 0 0 56 VBottom 2
WINDOW 3 32 56 VTop 2
SYMATTR InstName R1
SYMATTR Value 2.2Meg
SYMBOL cap 304 -704 R90
WINDOW 0 0 32 VBottom 2
WINDOW 3 32 32 VTop 2
SYMATTR InstName C1
SYMATTR Value 1n
SYMBOL res 336 -816 R0
SYMATTR InstName R2
SYMATTR Value 22k
SYMBOL cap 544 -608 R90
WINDOW 0 0 32 VBottom 2
WINDOW 3 32 32 VTop 2
SYMATTR InstName C2
SYMATTR Value 47n
SYMBOL npn 656 -640 R0
SYMATTR InstName Q2
SYMATTR Value 2N3904
SYMBOL cap 544 -448 R90
WINDOW 0 0 32 VBottom 2
WINDOW 3 32 32 VTop 2
SYMATTR InstName C3
SYMATTR Value 2.2n
SYMBOL res 704 -704 R90
WINDOW 0 0 56 VBottom 2
WINDOW 3 32 56 VTop 2
SYMATTR InstName R3
SYMATTR Value 1.2Meg
SYMBOL cap 816 -704 R90
WINDOW 0 0 32 VBottom 2
WINDOW 3 32 32 VTop 2
SYMATTR InstName C4
SYMATTR Value 3.3n
SYMBOL pot 912 -704 R90
SYMATTR InstName U1
SYMATTR Value R=50k
SYMATTR Value2 W=0.5
SYMBOL res 704 -816 R0
SYMATTR InstName R4
SYMATTR Value 47k
SYMBOL res 592 -848 R90
WINDOW 0 0 56 VBottom 2
WINDOW 3 32 56 VTop 2
SYMATTR InstName R5
SYMATTR Value 100k
SYMBOL cap 560 -768 R90
WINDOW 0 0 32 VBottom 2
WINDOW 3 32 32 VTop 2
SYMATTR InstName C5
SYMATTR Value 47n
SYMBOL cap 1040 -704 R90
WINDOW 0 0 32 VBottom 2
WINDOW 3 32 32 VTop 2
SYMATTR InstName C6
SYMATTR Value 1n
SYMBOL res 960 -672 M0
SYMATTR InstName R6
SYMATTR Value 10k
SYMBOL res 1056 -672 R0
SYMATTR InstName R7
SYMATTR Value 15k
SYMBOL cap 992 -512 R0
SYMATTR InstName C7
SYMATTR Value 100n
SYMBOL pot 992 -416 R0
SYMATTR InstName U2
SYMATTR Value R=50k
SYMATTR Value2 W=0.5
SYMATTR SpiceModel pot_log
SYMBOL pot 1216 -656 R0
SYMATTR InstName U3
SYMATTR Value R=50k
SYMATTR Value2 W=0.5
SYMATTR SpiceModel pot_log
SYMBOL cap 1360 -640 R90
WINDOW 0 0 32 VBottom 2
WINDOW 3 32 32 VTop 2
SYMATTR InstName C8
SYMATTR Value 10µ
SYMBOL npn 1424 -672 R0
SYMATTR InstName Q3
SYMATTR Value 2N3904
SYMBOL res 1472 -800 R0
SYMATTR InstName R8
SYMATTR Value 10k
SYMBOL res 1472 -592 R0
SYMATTR InstName R9
SYMATTR Value 390
SYMBOL res 1376 -592 R0
SYMATTR InstName R10
SYMATTR Value 47k
SYMBOL res 1376 -800 R0
SYMATTR InstName R11
SYMATTR Value 470k
SYMBOL cap 1616 -704 R90
WINDOW 0 0 32 VBottom 2
WINDOW 3 32 32 VTop 2
SYMATTR InstName C9
SYMATTR Value 10µ
SYMBOL res 1632 -672 R0
SYMATTR InstName R12
SYMATTR Value 10k
TEXT -80 -648 Left 2 !.tran 0 20m 10m
TEXT -80 -608 Left 2 !;ac dec 500 20 10000
TEXT -80 -576 Left 2 !;.step param W 0 1 0.2
