Version 4
SHEET 1 3188 1764
WIRE -320 -1168 -400 -1168
WIRE -240 -1168 -320 -1168
WIRE -320 -1152 -320 -1168
WIRE -240 -1152 -240 -1168
WIRE -400 -1120 -400 -1168
WIRE -240 -1056 -240 -1072
WIRE -144 -1056 -240 -1056
WIRE -112 -1056 -144 -1056
WIRE -240 -1040 -240 -1056
WIRE -144 -1040 -144 -1056
WIRE 1024 -896 976 -896
WIRE 1056 -896 1024 -896
WIRE 1424 -880 1392 -880
WIRE 1520 -880 1520 -928
WIRE 1520 -880 1504 -880
WIRE 1024 -864 1024 -896
WIRE 576 -848 560 -848
WIRE 640 -848 576 -848
WIRE 1520 -832 1520 -880
WIRE 1104 -800 1104 -864
WIRE 1168 -800 1104 -800
WIRE 1312 -800 1248 -800
WIRE 1392 -800 1392 -880
WIRE 1392 -800 1312 -800
WIRE 1664 -800 1552 -800
WIRE 1712 -800 1664 -800
WIRE 1312 -784 1312 -800
WIRE 1664 -784 1664 -800
WIRE 576 -768 576 -848
WIRE 688 -752 688 -816
WIRE 704 -752 688 -752
WIRE 800 -752 768 -752
WIRE 928 -752 800 -752
WIRE -544 -736 -544 -768
WIRE -384 -736 -544 -736
WIRE -320 -736 -384 -736
WIRE 800 -736 800 -752
WIRE 928 -736 928 -752
WIRE 1104 -736 1104 -800
WIRE 1760 -736 1760 -768
WIRE 1792 -736 1760 -736
WIRE 1936 -736 1856 -736
WIRE -544 -720 -544 -736
WIRE -384 -720 -384 -736
WIRE 688 -720 688 -752
WIRE 1392 -720 1392 -800
WIRE 1424 -720 1392 -720
WIRE 1520 -720 1520 -768
WIRE 1520 -720 1488 -720
WIRE 896 -704 880 -704
WIRE 1312 -704 1312 -720
WIRE 1360 -704 1312 -704
WIRE 1760 -704 1760 -736
WIRE 1936 -704 1936 -736
WIRE 1312 -688 1312 -704
WIRE 1520 -688 1520 -720
WIRE 2096 -672 1968 -672
WIRE 1360 -656 1360 -704
WIRE 1360 -656 1344 -656
WIRE -272 -640 -272 -704
WIRE -224 -640 -272 -640
WIRE -96 -640 -160 -640
WIRE 80 -640 -96 -640
WIRE 800 -640 800 -672
WIRE 880 -640 880 -704
WIRE 880 -640 800 -640
WIRE 928 -640 928 -672
WIRE 928 -640 880 -640
WIRE 1024 -640 1024 -800
WIRE 1104 -640 1104 -656
WIRE 1104 -640 1024 -640
WIRE -544 -624 -544 -656
WIRE -480 -624 -544 -624
WIRE -384 -624 -384 -656
WIRE -384 -624 -416 -624
WIRE -96 -624 -96 -640
WIRE -272 -608 -272 -640
WIRE 80 -608 80 -640
WIRE 576 -608 576 -704
WIRE 688 -608 688 -640
WIRE 688 -608 576 -608
WIRE 928 -608 928 -640
WIRE 688 -592 688 -608
WIRE 240 -576 112 -576
WIRE 272 -576 240 -576
WIRE 352 -576 336 -576
WIRE 1056 -576 960 -576
WIRE 1520 -576 1520 -608
WIRE 240 -560 240 -576
WIRE -96 -544 -96 -560
WIRE -48 -544 -96 -544
WIRE 1184 -544 1104 -544
WIRE 1568 -544 1552 -544
WIRE -96 -528 -96 -544
WIRE 352 -528 352 -576
WIRE 352 -528 272 -528
WIRE 384 -528 352 -528
WIRE 464 -528 448 -528
WIRE 480 -528 464 -528
WIRE 576 -528 560 -528
WIRE 640 -528 576 -528
WIRE 1184 -528 1184 -544
WIRE 928 -512 928 -544
WIRE 1104 -512 1104 -544
WIRE -448 -496 -448 -592
WIRE -272 -496 -272 -528
WIRE -272 -496 -448 -496
WIRE -48 -496 -48 -544
WIRE -48 -496 -64 -496
WIRE 768 -496 688 -496
WIRE -272 -480 -272 -496
WIRE 768 -480 768 -496
WIRE 1520 -480 1520 -512
WIRE 1568 -480 1568 -544
WIRE 1568 -480 1520 -480
WIRE 240 -464 240 -496
WIRE 352 -464 352 -528
WIRE 464 -464 464 -528
WIRE 576 -464 576 -528
WIRE 688 -464 688 -496
WIRE 1520 -448 1520 -480
WIRE -624 -416 -736 -416
WIRE -560 -416 -624 -416
WIRE -480 -416 -496 -416
WIRE -384 -416 -400 -416
WIRE -320 -416 -384 -416
WIRE -736 -400 -736 -416
WIRE -624 -400 -624 -416
WIRE -384 -400 -384 -416
WIRE -272 -336 -272 -384
WIRE -240 -336 -272 -336
WIRE -272 -304 -272 -336
WIRE -240 -272 -240 -336
FLAG -736 -320 0
FLAG -400 -1040 0
FLAG -240 -960 0
FLAG -144 -976 0
FLAG -320 -1088 0
FLAG -400 -1168 V+
FLAG -112 -1056 Vref
FLAG 480 -848 Vref
FLAG 688 -912 V+
FLAG 688 -400 0
FLAG 768 -400 0
FLAG 240 -384 0
FLAG 352 -384 0
FLAG 464 -384 0
FLAG 576 -400 0
FLAG 928 -432 0
FLAG 1104 -960 V+
FLAG 1104 -448 0
FLAG 1184 -448 0
FLAG 896 -896 Vref
FLAG 1312 -624 0
FLAG 1520 -992 0
FLAG 1520 -448 0
FLAG 1760 -864 V+
FLAG 1760 -624 0
FLAG 1936 -640 0
FLAG 1664 -704 0
FLAG -624 -320 0
FLAG -384 -320 0
FLAG -272 -800 V+
FLAG -272 -240 0
FLAG -544 -848 Vref
FLAG -96 -464 0
FLAG 80 -544 0
SYMBOL voltage -736 -416 R0
WINDOW 0 -80 16 Left 2
WINDOW 3 -219 63 Left 2
WINDOW 123 -108 110 Left 2
WINDOW 39 0 0 Left 2
SYMATTR InstName V1
SYMATTR Value SINE(0 1 1000)
SYMATTR Value2 AC 1
SYMBOL cap -336 -1152 R0
SYMATTR InstName C12
SYMATTR Value 220µ
SYMBOL res -256 -1168 R0
SYMATTR InstName R10
SYMATTR Value 10k
SYMBOL res -256 -1056 R0
SYMATTR InstName R11
SYMATTR Value 10k
SYMBOL cap -160 -1040 R0
SYMATTR InstName C13
SYMATTR Value 47µ
SYMBOL voltage -400 -1136 R0
WINDOW 123 0 0 Left 2
WINDOW 39 0 0 Left 2
SYMATTR InstName V2
SYMATTR Value 9
SYMBOL njf 640 -592 R0
SYMATTR InstName J8
SYMATTR Value J201_1.3
SYMBOL res 752 -496 R0
SYMATTR InstName R26
SYMATTR Value 1k
SYMBOL cap 672 -464 R0
SYMATTR InstName C10
SYMATTR Value 10µ
SYMBOL njf 640 -912 R0
SYMATTR InstName J9
SYMATTR Value J201_1.3
SYMBOL cap 560 -768 R0
SYMATTR InstName C22
SYMATTR Value 47n
SYMBOL res 576 -864 R90
WINDOW 0 0 56 VBottom 2
WINDOW 3 32 56 VTop 2
SYMATTR InstName R27
SYMATTR Value 470k
SYMBOL cap 768 -768 R90
WINDOW 0 0 32 VBottom 2
WINDOW 3 32 32 VTop 2
SYMATTR InstName C23
SYMATTR Value 100n
SYMBOL res 672 -736 R0
SYMATTR InstName R28
SYMATTR Value 1k
SYMBOL pot 224 -560 R0
SYMATTR InstName U8
SYMATTR Value R=1Meg
SYMATTR Value2 W=0.5
SYMBOL res 224 -480 R0
SYMATTR InstName R29
SYMATTR Value 10k
SYMBOL res 336 -480 R0
SYMATTR InstName R30
SYMATTR Value 1Meg
SYMBOL cap 336 -592 R90
WINDOW 0 0 32 VBottom 2
WINDOW 3 32 32 VTop 2
SYMATTR InstName C24
SYMATTR Value 1n
SYMBOL cap 448 -544 R90
WINDOW 0 0 32 VBottom 2
WINDOW 3 32 32 VTop 2
SYMATTR InstName C25
SYMATTR Value 3.3n
SYMBOL res 448 -480 R0
SYMATTR InstName R31
SYMATTR Value 1Meg
SYMBOL res 576 -544 R90
WINDOW 0 0 56 VBottom 2
WINDOW 3 32 56 VTop 2
SYMATTR InstName R32
SYMATTR Value 47k
SYMBOL cap 560 -464 R0
SYMATTR InstName C26
SYMATTR Value 470p
SYMBOL pot 944 -672 R180
SYMATTR InstName U13
SYMATTR Value R=1Meg
SYMATTR Value2 W=0.5
SYMBOL cap 784 -736 R0
SYMATTR InstName C27
SYMATTR Value 470p
SYMBOL pot 912 -608 R0
SYMATTR InstName U14
SYMATTR Value R=1Meg
SYMATTR Value2 W=0.5
SYMATTR SpiceModel pot_log
SYMBOL res 912 -528 R0
SYMATTR InstName R33
SYMATTR Value 10k
SYMBOL njf 1056 -640 R0
SYMATTR InstName J10
SYMATTR Value J201_1.3
SYMBOL res 1168 -544 R0
SYMATTR InstName R34
SYMATTR Value 100
SYMBOL cap 1088 -512 R0
SYMATTR InstName C28
SYMATTR Value 47µ
SYMBOL njf 1056 -960 R0
SYMATTR InstName J11
SYMATTR Value J201_1.3
SYMBOL cap 1008 -864 R0
SYMATTR InstName C29
SYMATTR Value 1µ
SYMBOL res 1088 -752 R0
SYMATTR InstName R35
SYMATTR Value 1k
SYMBOL res 992 -912 R90
WINDOW 0 0 56 VBottom 2
WINDOW 3 32 56 VTop 2
SYMATTR InstName R36
SYMATTR Value 470k
SYMBOL cap 1296 -784 R0
SYMATTR InstName C30
SYMATTR Value 3.3n
SYMBOL pot 1296 -688 R0
SYMATTR InstName U15
SYMATTR Value R=100k
SYMATTR Value2 W=0.5
SYMATTR SpiceModel pot_log
SYMBOL res 1520 -896 R90
WINDOW 0 0 56 VBottom 2
WINDOW 3 32 56 VTop 2
SYMATTR InstName R37
SYMATTR Value 39k
SYMBOL cap 1488 -736 R90
WINDOW 0 0 32 VBottom 2
WINDOW 3 32 32 VTop 2
SYMATTR InstName C31
SYMATTR Value 100n
SYMBOL pot 1504 -832 R0
SYMATTR InstName U16
SYMATTR Value R=100k
SYMATTR Value2 W=0.5
SYMBOL cap 1504 -992 R0
SYMATTR InstName C32
SYMATTR Value 8.2n
SYMBOL res 1504 -704 R0
SYMATTR InstName R38
SYMATTR Value 43k
SYMBOL pot 1504 -576 R0
SYMATTR InstName U17
SYMATTR Value R=100k
SYMATTR Value2 W=0.5
SYMBOL res 1648 -800 R0
SYMATTR InstName R39
SYMATTR Value 1Meg
SYMBOL njf 1712 -864 R0
SYMATTR InstName J12
SYMATTR Value J201_0.8
SYMBOL res 1744 -720 R0
SYMATTR InstName R40
SYMATTR Value 10k
SYMBOL cap 1856 -752 R90
WINDOW 0 0 32 VBottom 2
WINDOW 3 32 32 VTop 2
SYMATTR InstName C33
SYMATTR Value 100n
SYMBOL pot 1920 -704 R0
SYMATTR InstName U18
SYMATTR Value R=100k
SYMATTR Value2 W=0.5
SYMATTR SpiceModel pot_log
SYMBOL res 1264 -816 R90
WINDOW 0 0 56 VBottom 2
WINDOW 3 32 56 VTop 2
SYMATTR InstName R41
SYMATTR Value 47k
SYMBOL res -640 -416 R0
SYMATTR InstName R42
SYMATTR Value 1Meg
SYMBOL cap -496 -432 R90
WINDOW 0 0 32 VBottom 2
WINDOW 3 32 32 VTop 2
SYMATTR InstName C34
SYMATTR Value 100n
SYMBOL res -384 -432 R90
WINDOW 0 0 56 VBottom 2
WINDOW 3 32 56 VTop 2
SYMATTR InstName R43
SYMATTR Value 10k
SYMBOL res -400 -416 R0
SYMATTR InstName R44
SYMATTR Value 1Meg
SYMBOL njf -320 -480 R0
SYMATTR InstName J13
SYMATTR Value J201_1.3
SYMBOL njf -320 -800 R0
SYMATTR InstName J14
SYMATTR Value J201_1.3
SYMBOL res -288 -624 R0
SYMATTR InstName R45
SYMATTR Value 1k
SYMBOL cap -160 -656 R90
WINDOW 0 0 32 VBottom 2
WINDOW 3 32 32 VTop 2
SYMATTR InstName C35
SYMATTR Value 100n
SYMBOL pot -416 -640 R90
SYMATTR InstName U19
SYMATTR Value R=100k
SYMATTR Value2 W=0.5
SYMBOL cap -560 -720 R0
SYMATTR InstName C36
SYMATTR Value 1µ
SYMBOL res -560 -864 R0
SYMATTR InstName R46
SYMATTR Value 470k
SYMBOL cap -400 -720 R0
SYMATTR InstName C37
SYMATTR Value 10n
SYMBOL cap -112 -624 R0
SYMATTR InstName C38
SYMATTR Value 47n
SYMBOL pot -112 -528 R0
SYMATTR InstName U20
SYMATTR Value R=100k
SYMATTR Value2 W=0.5
SYMATTR SpiceModel pot_log
SYMBOL pot 64 -608 R0
SYMATTR InstName U21
SYMATTR Value R=100k
SYMATTR Value2 W=0.5
SYMATTR SpiceModel pot_log
SYMBOL pot -288 -304 R0
SYMATTR InstName U1
SYMATTR Value2 W=0.5
SYMATTR SpiceModel pot_log
SYMATTR Value R=20k
TEXT 112 -1136 Left 2 !.tran 0 20m 10m
TEXT 112 -1096 Left 2 !;ac dec 500 20 10000
TEXT 112 -1064 Left 2 !;.step param W 0 1 0.2
