Version 4
SHEET 1 3188 1764
WIRE 736 -1136 656 -1136
WIRE 816 -1136 736 -1136
WIRE 736 -1120 736 -1136
WIRE 816 -1120 816 -1136
WIRE 656 -1088 656 -1136
WIRE 816 -1024 816 -1040
WIRE 912 -1024 816 -1024
WIRE 944 -1024 912 -1024
WIRE 816 -1008 816 -1024
WIRE 912 -1008 912 -1024
WIRE 128 -800 128 -832
WIRE 288 -800 128 -800
WIRE 352 -800 288 -800
WIRE 128 -784 128 -800
WIRE 288 -784 288 -800
WIRE 400 -704 400 -768
WIRE 448 -704 400 -704
WIRE 576 -704 512 -704
WIRE 752 -704 576 -704
WIRE 128 -688 128 -720
WIRE 192 -688 128 -688
WIRE 288 -688 288 -720
WIRE 288 -688 256 -688
WIRE 576 -688 576 -704
WIRE 400 -672 400 -704
WIRE 752 -672 752 -704
WIRE 848 -640 784 -640
WIRE 576 -608 576 -624
WIRE 624 -608 576 -608
WIRE 576 -592 576 -608
WIRE 224 -560 224 -656
WIRE 400 -560 400 -592
WIRE 400 -560 224 -560
WIRE 624 -560 624 -608
WIRE 624 -560 608 -560
WIRE 400 -544 400 -560
WIRE 48 -480 -64 -480
WIRE 112 -480 48 -480
WIRE 192 -480 176 -480
WIRE 288 -480 272 -480
WIRE 352 -480 288 -480
WIRE -64 -464 -64 -480
WIRE 48 -464 48 -480
WIRE 288 -464 288 -480
WIRE 400 -400 400 -448
WIRE 464 -400 400 -400
WIRE 608 -400 528 -400
WIRE 640 -400 608 -400
WIRE 400 -384 400 -400
WIRE 608 -368 608 -400
WIRE 640 -336 640 -400
FLAG -64 -384 0
FLAG 656 -1008 0
FLAG 816 -928 0
FLAG 912 -944 0
FLAG 736 -1056 0
FLAG 656 -1136 V+
FLAG 944 -1024 Vref
FLAG 48 -384 0
FLAG 288 -384 0
FLAG 400 -864 V+
FLAG 608 -304 0
FLAG 128 -912 Vref
FLAG 576 -528 0
FLAG 752 -608 0
FLAG 400 -304 0
SYMBOL voltage -64 -480 R0
WINDOW 0 -80 16 Left 2
WINDOW 3 -219 63 Left 2
WINDOW 123 -108 110 Left 2
WINDOW 39 0 0 Left 2
SYMATTR InstName V1
SYMATTR Value SINE(0 1 1000)
SYMATTR Value2 AC 1
SYMBOL cap 720 -1120 R0
SYMATTR InstName C12
SYMATTR Value 220µ
SYMBOL res 800 -1136 R0
SYMATTR InstName R10
SYMATTR Value 10k
SYMBOL res 800 -1024 R0
SYMATTR InstName R11
SYMATTR Value 10k
SYMBOL cap 896 -1008 R0
SYMATTR InstName C13
SYMATTR Value 47µ
SYMBOL voltage 656 -1104 R0
WINDOW 123 0 0 Left 2
WINDOW 39 0 0 Left 2
SYMATTR InstName V2
SYMATTR Value 9
SYMBOL res 32 -480 R0
SYMATTR InstName R42
SYMATTR Value 1Meg
SYMBOL cap 176 -496 R90
WINDOW 0 0 32 VBottom 2
WINDOW 3 32 32 VTop 2
SYMATTR InstName C34
SYMATTR Value 100n
SYMBOL res 288 -496 R90
WINDOW 0 0 56 VBottom 2
WINDOW 3 32 56 VTop 2
SYMATTR InstName R43
SYMATTR Value 10k
SYMBOL res 272 -480 R0
SYMATTR InstName R44
SYMATTR Value 1Meg
SYMBOL njf 352 -544 R0
SYMATTR InstName J13
SYMATTR Value J201_1.3
SYMBOL njf 352 -864 R0
SYMATTR InstName J14
SYMATTR Value J201_1.3
SYMBOL res 384 -688 R0
SYMATTR InstName R45
SYMATTR Value 1k
SYMBOL cap 512 -720 R90
WINDOW 0 0 32 VBottom 2
WINDOW 3 32 32 VTop 2
SYMATTR InstName C35
SYMATTR Value 100n
SYMBOL pot 256 -704 R90
SYMATTR InstName U19
SYMATTR Value R=100k
SYMATTR Value2 W=0.5
SYMBOL cap 112 -784 R0
SYMATTR InstName C36
SYMATTR Value 1µ
SYMBOL res 112 -928 R0
SYMATTR InstName R46
SYMATTR Value 470k
SYMBOL cap 272 -784 R0
SYMATTR InstName C37
SYMATTR Value 10n
SYMBOL cap 560 -688 R0
SYMATTR InstName C38
SYMATTR Value 47n
SYMBOL pot 560 -592 R0
SYMATTR InstName U20
SYMATTR Value R=100k
SYMATTR Value2 W=0.5
SYMATTR SpiceModel pot_log
SYMBOL pot 736 -672 R0
SYMATTR InstName U21
SYMATTR Value R=100k
SYMATTR Value2 W=0.5
SYMATTR SpiceModel pot_log
SYMBOL pot 592 -368 R0
SYMATTR InstName U1
SYMATTR Value2 W={W}
SYMATTR SpiceModel pot_log
SYMATTR Value R=20k
SYMBOL res 384 -400 R0
SYMATTR InstName R1
SYMATTR Value 10k
SYMBOL cap 528 -416 R90
WINDOW 0 0 32 VBottom 2
WINDOW 3 32 32 VTop 2
SYMATTR InstName C1
SYMATTR Value 100µ
TEXT 336 -1128 Left 2 !;tran 0 20m 10m
TEXT 336 -1088 Left 2 !.ac dec 500 20 10000
TEXT 336 -1056 Left 2 !.step param W 0 1 0.2
