Version 4
SHEET 1 2788 680
WIRE 2032 -416 2032 -464
WIRE 2032 -416 1920 -416
WIRE 2144 -416 2032 -416
WIRE 1920 -400 1920 -416
WIRE 2144 -400 2144 -416
WIRE 2032 -384 2032 -416
WIRE 2144 -304 2144 -320
WIRE 2240 -304 2144 -304
WIRE 2304 -304 2240 -304
WIRE 2144 -288 2144 -304
WIRE 2240 -288 2240 -304
WIRE 848 -272 800 -272
WIRE 976 -272 928 -272
WIRE 992 -272 976 -272
WIRE 1104 -272 1056 -272
WIRE 1216 -272 1184 -272
WIRE 1312 -272 1280 -272
WIRE 1408 -272 1376 -272
WIRE 1552 -272 1472 -272
WIRE 976 -224 976 -272
WIRE 1024 -224 1024 -240
WIRE 1024 -224 976 -224
WIRE 1344 -208 1344 -240
WIRE 800 -176 800 -272
WIRE 864 -176 800 -176
WIRE 1104 -176 1104 -272
WIRE 1104 -176 1056 -176
WIRE 1344 -112 1344 -128
WIRE 1456 -112 1344 -112
WIRE 1344 -96 1344 -112
WIRE 1552 -96 1552 -272
WIRE 1552 -96 1520 -96
WIRE 1600 -96 1552 -96
WIRE 1712 -96 1664 -96
WIRE 800 -80 800 -176
WIRE 864 -80 800 -80
WIRE 1104 -80 1104 -176
WIRE 1104 -80 1056 -80
WIRE 1456 -80 1424 -80
WIRE 1968 -48 1968 -80
WIRE 1712 -32 1712 -96
WIRE 576 -16 576 -48
WIRE 1344 0 1344 -16
WIRE 1344 0 1296 0
WIRE 1392 0 1344 0
WIRE 1776 0 1744 0
WIRE 1856 0 1840 0
WIRE 1904 0 1856 0
WIRE 800 16 800 -80
WIRE 928 16 800 16
WIRE 1104 16 1104 -80
WIRE 1104 16 992 16
WIRE 1296 16 1296 0
WIRE 1392 16 1392 0
WIRE 1856 16 1856 0
WIRE 240 32 112 32
WIRE 272 32 240 32
WIRE 352 32 336 32
WIRE 464 32 432 32
WIRE 512 32 464 32
WIRE 240 64 240 32
WIRE 464 64 464 32
WIRE 1712 64 1712 32
WIRE 1968 64 1968 48
WIRE 2016 64 1968 64
WIRE 2112 64 2080 64
WIRE 2208 64 2192 64
WIRE 2224 64 2208 64
WIRE 1968 80 1968 64
WIRE 2208 80 2208 64
WIRE 1344 96 1344 0
WIRE 112 112 112 32
WIRE 576 112 576 80
WIRE 608 112 576 112
WIRE 800 112 800 16
WIRE 800 112 752 112
WIRE 848 112 800 112
WIRE 1104 128 1104 16
WIRE 1104 128 912 128
WIRE 1184 128 1184 -272
WIRE 1184 128 1104 128
WIRE 1200 128 1184 128
WIRE 1296 128 1296 80
WIRE 1296 128 1280 128
WIRE 1312 128 1296 128
WIRE 1392 128 1392 80
WIRE 1392 128 1376 128
WIRE 1408 128 1392 128
WIRE 1552 128 1552 -96
WIRE 1552 128 1488 128
WIRE 1856 128 1856 96
WIRE 576 144 576 112
WIRE 848 144 800 144
WIRE 800 176 800 144
FLAG 112 192 0
FLAG 2240 -224 0
FLAG 2144 -208 0
FLAG 1920 -336 0
FLAG 2032 -304 0
FLAG 2032 -464 V+
FLAG 2304 -304 Vref
FLAG 240 144 0
FLAG 576 224 0
FLAG 464 144 Vref
FLAG 576 -48 V+
FLAG 880 160 0
FLAG 880 96 V+
FLAG 1424 -80 Vref
FLAG 1488 -128 V+
FLAG 1488 -64 0
FLAG 2208 160 0
FLAG 1968 160 0
FLAG 1968 -80 V+
FLAG 1856 128 Vref
FLAG 800 176 Vref
FLAG 1712 64 0
SYMBOL voltage 112 96 R0
WINDOW 123 24 124 Left 2
WINDOW 39 0 0 Left 2
SYMATTR Value2 AC 1
SYMATTR InstName V1
SYMATTR Value SINE(0 1 1000)
SYMBOL res 224 48 R0
SYMATTR InstName R1
SYMATTR Value 1Meg
SYMBOL cap 336 16 R90
WINDOW 0 0 32 VBottom 2
WINDOW 3 32 32 VTop 2
SYMATTR InstName C1
SYMATTR Value 100n
SYMBOL res 448 16 R90
WINDOW 0 0 56 VBottom 2
WINDOW 3 32 56 VTop 2
SYMATTR InstName R2
SYMATTR Value 10k
SYMBOL res 448 48 R0
SYMATTR InstName R3
SYMATTR Value 1Meg
SYMBOL npn 512 -16 R0
SYMATTR InstName Q2
SYMATTR Value 2N3904
SYMBOL res 560 128 R0
SYMATTR InstName R4
SYMATTR Value 10k
SYMBOL cap 672 96 R90
WINDOW 0 0 32 VBottom 2
WINDOW 3 32 32 VTop 2
SYMATTR InstName C2
SYMATTR Value 1µ
SYMBOL EXTRA\\AudioOpamp\\TI\\TL072_TI 880 128 R0
SYMATTR InstName U1
SYMBOL diode 928 -96 R90
WINDOW 0 0 32 VBottom 2
WINDOW 3 32 32 VTop 2
SYMATTR InstName D1
SYMATTR Value 1N4148
SYMBOL diode 864 -160 R270
WINDOW 0 32 32 VTop 2
WINDOW 3 0 32 VBottom 2
SYMATTR InstName D2
SYMATTR Value 1N4148
SYMBOL res 944 -288 R90
WINDOW 0 0 56 VBottom 2
WINDOW 3 32 56 VTop 2
SYMATTR InstName R6
SYMATTR Value 47k
SYMBOL pot 1056 -288 R90
WINDOW 3 -93 23 Left 2
WINDOW 123 -71 57 Left 2
SYMATTR Value R=500k
SYMATTR Value2 W=0.5
SYMATTR InstName U2
SYMBOL res 1296 112 R90
WINDOW 0 0 56 VBottom 2
WINDOW 3 32 56 VTop 2
SYMATTR InstName R15
SYMATTR Value 4.7k
SYMBOL pot 1312 144 R270
WINDOW 3 -93 23 Left 2
WINDOW 123 -71 57 Left 2
SYMATTR Value R=50k
SYMATTR Value2 W=0.5
SYMATTR InstName U5
SYMBOL res 1504 112 R90
WINDOW 0 0 56 VBottom 2
WINDOW 3 32 56 VTop 2
SYMATTR InstName R16
SYMATTR Value 4.7k
SYMBOL cap 1376 16 R0
SYMATTR InstName C9
SYMATTR Value 47n
SYMBOL cap 1280 16 R0
WINDOW 0 -40 4 Left 2
WINDOW 3 -43 47 Left 2
SYMATTR InstName C10
SYMATTR Value 47n
SYMBOL res 1328 -112 R0
SYMATTR InstName R17
SYMATTR Value 33k
SYMBOL EXTRA\\AudioOpamp\\TI\\TL072_TI 1488 -96 R0
SYMATTR InstName U6
SYMBOL res 1328 -224 R0
SYMATTR InstName R18
SYMATTR Value 10k
SYMBOL pot 1376 -288 R90
WINDOW 3 -93 23 Left 2
WINDOW 123 -71 57 Left 2
SYMATTR Value R=50k
SYMATTR Value2 W=0.5
SYMATTR InstName U7
SYMBOL cap 1280 -288 R90
WINDOW 0 0 32 VBottom 2
WINDOW 3 32 32 VTop 2
SYMATTR InstName C11
SYMATTR Value 10n
SYMBOL cap 1472 -288 R90
WINDOW 0 0 32 VBottom 2
WINDOW 3 32 32 VTop 2
SYMATTR InstName C12
SYMATTR Value 10n
SYMBOL pot 1696 -32 R0
WINDOW 3 -80 23 Left 2
WINDOW 123 -71 57 Left 2
SYMATTR Value R=100k
SYMATTR Value2 W=0.5
SYMATTR InstName U8
SYMATTR SpiceModel pot_log
SYMBOL cap 1840 -16 R90
WINDOW 0 0 32 VBottom 2
WINDOW 3 32 32 VTop 2
SYMATTR InstName C13
SYMATTR Value 100n
SYMBOL res 1840 0 R0
SYMATTR InstName R19
SYMATTR Value 470k
SYMBOL npn 1904 -48 R0
SYMATTR InstName Q1
SYMATTR Value 2N3904
SYMBOL res 1952 64 R0
SYMATTR InstName R20
SYMATTR Value 10k
SYMBOL cap 2080 48 R90
WINDOW 0 0 32 VBottom 2
WINDOW 3 32 32 VTop 2
SYMATTR InstName C14
SYMATTR Value 10µ
SYMBOL res 2208 48 R90
WINDOW 0 0 56 VBottom 2
WINDOW 3 32 56 VTop 2
SYMATTR InstName R21
SYMATTR Value 470
SYMBOL res 2192 64 R0
SYMATTR InstName R22
SYMATTR Value 100k
SYMBOL voltage 2032 -400 R0
WINDOW 123 0 0 Left 2
WINDOW 39 0 0 Left 2
SYMATTR InstName V2
SYMATTR Value 9
SYMBOL res 2128 -416 R0
SYMATTR InstName R23
SYMATTR Value 10k
SYMBOL res 2128 -304 R0
SYMATTR InstName R24
SYMATTR Value 10k
SYMBOL cap 2224 -288 R0
SYMATTR InstName C15
SYMATTR Value 220µ
SYMBOL cap 1904 -400 R0
SYMATTR InstName C16
SYMATTR Value 220µ
SYMBOL res 768 96 R90
WINDOW 0 0 56 VBottom 2
WINDOW 3 32 56 VTop 2
SYMATTR InstName R7
SYMATTR Value 22k
SYMBOL diode 992 -96 R90
WINDOW 0 0 32 VBottom 2
WINDOW 3 32 32 VTop 2
SYMATTR InstName D3
SYMATTR Value 1N4148
SYMBOL diode 1056 -96 R90
WINDOW 0 0 32 VBottom 2
WINDOW 3 32 32 VTop 2
SYMATTR InstName D4
SYMATTR Value 1N4148
SYMBOL diode 928 -160 R270
WINDOW 0 32 32 VTop 2
WINDOW 3 0 32 VBottom 2
SYMATTR InstName D5
SYMATTR Value 1N4148
SYMBOL diode 992 -160 R270
WINDOW 0 32 32 VTop 2
WINDOW 3 0 32 VBottom 2
SYMATTR InstName D6
SYMATTR Value 1N4148
SYMBOL cap 992 0 R90
WINDOW 0 0 32 VBottom 2
WINDOW 3 32 32 VTop 2
SYMATTR InstName C3
SYMATTR Value 150p
SYMBOL cap 1664 -112 R90
WINDOW 0 0 32 VBottom 2
WINDOW 3 32 32 VTop 2
SYMATTR InstName C4
SYMATTR Value 1µ
TEXT 344 -344 Left 2 !;tran 20m
TEXT 344 -304 Left 2 !.ac dec 500 10 10000
TEXT 344 -256 Left 2 !;.step param W 0 1 0.2
