Version 4
SHEET 1 2644 680
WIRE 352 -576 304 -576
WIRE 480 -576 432 -576
WIRE 512 -576 480 -576
WIRE 608 -576 576 -576
WIRE 784 -576 608 -576
WIRE 1024 -544 960 -544
WIRE 1136 -544 1088 -544
WIRE 784 -480 784 -576
WIRE 480 -464 480 -576
WIRE 512 -464 480 -464
WIRE 64 -448 64 -496
WIRE 144 -448 64 -448
WIRE 240 -448 144 -448
WIRE 608 -448 608 -576
WIRE 608 -448 576 -448
WIRE 704 -448 608 -448
WIRE 752 -448 704 -448
WIRE 848 -448 816 -448
WIRE 960 -448 960 -544
WIRE 960 -448 928 -448
WIRE 992 -448 960 -448
WIRE 240 -432 240 -448
WIRE 512 -432 480 -432
WIRE 1136 -432 1136 -544
WIRE 1136 -432 1056 -432
WIRE 1232 -432 1136 -432
WIRE 144 -416 144 -448
WIRE 992 -416 960 -416
WIRE 1232 -400 1232 -432
WIRE 64 -384 64 -448
WIRE 1328 -368 1264 -368
WIRE 1504 -368 1408 -368
WIRE 240 -336 240 -352
WIRE 320 -336 240 -336
WIRE 384 -336 320 -336
WIRE 240 -320 240 -336
WIRE 320 -320 320 -336
WIRE 704 -304 704 -448
WIRE 848 -304 704 -304
WIRE 944 -304 912 -304
WIRE 976 -304 944 -304
WIRE 1136 -304 1136 -432
WIRE 1136 -304 1040 -304
WIRE 1232 -288 1232 -336
WIRE 1504 -288 1504 -368
WIRE 1584 -288 1504 -288
WIRE 480 -208 480 -432
WIRE 768 -208 480 -208
WIRE 1136 -208 1136 -304
WIRE 1136 -208 848 -208
WIRE 1328 -208 1232 -208
WIRE 1504 -208 1504 -288
WIRE 1504 -208 1408 -208
WIRE 480 -176 480 -208
WIRE 944 -176 944 -304
WIRE 1232 -176 1232 -208
WIRE 1296 -144 1264 -144
WIRE 1232 -80 1232 -112
WIRE 1296 -80 1296 -144
WIRE 1296 -80 1232 -80
WIRE 1232 -48 1232 -80
FLAG 64 -304 0
FLAG 144 -352 0
FLAG 240 -240 0
FLAG 320 -256 0
FLAG 64 -496 V+
FLAG 304 -576 Vref
FLAG 544 -480 V+
FLAG 544 -416 0
FLAG 1024 -464 V+
FLAG 1024 -400 0
FLAG 960 -416 Vref
FLAG 384 -336 Vref
FLAG 480 -112 0
FLAG 944 -96 0
FLAG 1232 -288 V+
FLAG 1232 -48 0
SYMBOL voltage 64 -400 R0
WINDOW 123 0 0 Left 2
WINDOW 39 0 0 Left 2
SYMATTR InstName V1
SYMATTR Value 9
SYMBOL cap 128 -416 R0
SYMATTR InstName C1
SYMATTR Value 220µ
SYMBOL res 224 -448 R0
SYMATTR InstName R1
SYMATTR Value 10k
SYMBOL res 224 -336 R0
SYMATTR InstName R2
SYMATTR Value 10k
SYMBOL cap 304 -320 R0
SYMATTR InstName C2
SYMATTR Value 47µ
SYMBOL res 448 -592 R90
WINDOW 0 0 56 VBottom 2
WINDOW 3 32 56 VTop 2
SYMATTR InstName R3
SYMATTR Value 100k
SYMBOL EXTRA\\AudioOpamp\\TI\\TL072_TI 544 -448 R0
SYMATTR InstName U2
SYMBOL cap 576 -592 R90
WINDOW 0 0 32 VBottom 2
WINDOW 3 32 32 VTop 2
SYMATTR InstName C3
SYMATTR Value 470n
SYMBOL pot 752 -432 R270
SYMATTR InstName U3
SYMATTR Value R=1Meg
SYMATTR Value2 W={W}
SYMATTR SpiceModel pot_log
SYMBOL res 944 -464 R90
WINDOW 0 0 56 VBottom 2
WINDOW 3 32 56 VTop 2
SYMATTR InstName R6
SYMATTR Value 10k
SYMBOL EXTRA\\AudioOpamp\\TI\\TL072_TI 1024 -432 R0
SYMATTR InstName U4
SYMBOL res 864 -224 R90
WINDOW 0 0 56 VBottom 2
WINDOW 3 32 56 VTop 2
SYMATTR InstName R7
SYMATTR Value 150k
SYMBOL cap 464 -176 R0
SYMATTR InstName C6
SYMATTR Value 470n
SYMBOL cap 1088 -560 R90
WINDOW 0 0 32 VBottom 2
WINDOW 3 32 32 VTop 2
SYMATTR InstName C4
SYMATTR Value 470n
SYMBOL LED 848 -288 R270
WINDOW 0 72 32 VTop 2
WINDOW 3 0 32 VBottom 2
SYMATTR InstName D1
SYMATTR Value LED_RED
SYMBOL LED 1040 -320 R90
WINDOW 0 0 32 VBottom 2
WINDOW 3 72 32 VTop 2
SYMATTR InstName D2
SYMATTR Value LED_GREEN
SYMBOL res 928 -192 R0
SYMATTR InstName R4
SYMATTR Value 1k
SYMBOL pot 1216 -400 R0
SYMATTR InstName U1
SYMATTR Value2 W=0.5
SYMBOL res 1424 -384 R90
WINDOW 0 0 56 VBottom 2
WINDOW 3 32 56 VTop 2
SYMATTR InstName R5
SYMATTR Value 33k
SYMBOL res 1424 -224 R90
WINDOW 0 0 56 VBottom 2
WINDOW 3 32 56 VTop 2
SYMATTR InstName R8
SYMATTR Value 510
SYMBOL pot 1216 -176 R0
SYMATTR InstName U5
SYMATTR Value R=5k
SYMATTR Value2 W=0.5
TEXT 952 -648 Left 2 !.tran 0 48 45
TEXT 952 -680 Left 2 !;ac dec 10000 10 10000
TEXT 648 -672 Left 2 !.step param W 0 1 0.2
