Version 4
SHEET 1 2248 680
WIRE 736 -128 736 -192
WIRE 1600 -128 1600 -144
WIRE 1664 -128 1600 -128
WIRE 1760 -128 1728 -128
WIRE 1824 -128 1760 -128
WIRE 1920 -128 1920 -144
WIRE 1920 -128 1888 -128
WIRE 2000 -128 1920 -128
WIRE 2096 -128 2064 -128
WIRE 1600 -112 1600 -128
WIRE 464 -80 464 -112
WIRE 672 -80 464 -80
WIRE 1760 -80 1760 -128
WIRE 1232 -64 1232 -96
WIRE 1536 -64 1232 -64
WIRE 464 -48 464 -80
WIRE 1232 -48 1232 -64
WIRE 2096 -48 2096 -128
WIRE 2224 -16 2128 -16
WIRE 176 0 112 0
WIRE 352 0 320 0
WIRE 400 0 352 0
WIRE 736 0 736 -32
WIRE 784 0 736 0
WIRE 896 0 848 0
WIRE 944 0 928 0
WIRE 1056 0 1024 0
WIRE 1136 0 1120 0
WIRE 1168 0 1136 0
WIRE 896 16 896 0
WIRE 1136 32 1136 0
WIRE 1136 32 1088 32
WIRE 1136 80 1136 32
WIRE 1376 80 1136 80
WIRE 1600 80 1600 -16
WIRE 1600 80 1440 80
WIRE 1664 80 1600 80
WIRE 1760 80 1728 80
WIRE 1824 80 1760 80
WIRE 1920 80 1920 -128
WIRE 1920 80 1888 80
WIRE 352 96 352 0
WIRE 512 96 352 96
WIRE 608 96 592 96
WIRE 624 96 608 96
WIRE 736 96 736 0
WIRE 736 96 704 96
WIRE 1136 112 1136 80
WIRE 1264 112 1136 112
WIRE 1376 112 1344 112
WIRE 1472 112 1376 112
WIRE 1488 112 1472 112
WIRE 1600 112 1600 80
WIRE 1600 112 1568 112
WIRE 896 128 896 96
WIRE 928 128 928 0
WIRE 928 128 896 128
WIRE 112 144 112 0
WIRE 352 144 352 96
WIRE 464 144 464 48
WIRE 736 144 736 96
WIRE 896 144 896 128
WIRE 1232 144 1232 48
WIRE 1376 144 1376 112
WIRE 1600 144 1600 112
WIRE 1760 144 1760 80
WIRE 608 160 608 96
WIRE 1472 160 1472 112
FLAG 112 224 0
FLAG 352 224 0
FLAG 464 224 0
FLAG 464 -192 V+
FLAG 608 224 0
FLAG 736 -192 V+
FLAG 736 224 0
FLAG 896 224 0
FLAG 1232 -176 V+
FLAG 1232 224 0
FLAG 1376 224 0
FLAG 1472 224 0
FLAG 1600 224 0
FLAG 1600 -224 V+
FLAG 1760 224 0
FLAG 1760 0 0
FLAG 1920 -224 V+
FLAG 896 -336 0
FLAG 896 -416 V+
FLAG 2096 16 0
SYMBOL voltage 112 128 R0
WINDOW 123 0 0 Left 2
WINDOW 39 0 0 Left 2
SYMATTR InstName V1
SYMATTR Value SINE(0 1 500)
SYMBOL res 272 -16 R90
WINDOW 0 0 56 VBottom 2
WINDOW 3 32 56 VTop 2
SYMATTR InstName R1
SYMATTR Value 22k
SYMBOL cap 320 -16 R90
WINDOW 0 0 32 VBottom 2
WINDOW 3 32 32 VTop 2
SYMATTR InstName C1
SYMATTR Value 1µ
SYMBOL res 336 128 R0
SYMATTR InstName R2
SYMATTR Value 150k
SYMBOL res 448 128 R0
SYMATTR InstName R4
SYMATTR Value 1.5k
SYMBOL npn 400 -48 R0
SYMATTR InstName Q1
SYMATTR Value 2N3904
SYMBOL res 448 -208 R0
SYMATTR InstName R5
SYMATTR Value 47k
SYMBOL res 608 80 R90
WINDOW 0 0 56 VBottom 2
WINDOW 3 32 56 VTop 2
SYMATTR InstName R6
SYMATTR Value 560k
SYMBOL res 720 80 R90
WINDOW 0 0 56 VBottom 2
WINDOW 3 32 56 VTop 2
SYMATTR InstName R7
SYMATTR Value 120k
SYMBOL cap 592 160 R0
SYMATTR InstName C2
SYMATTR Value 100n
SYMBOL npn 672 -128 R0
SYMATTR InstName Q2
SYMATTR Value 2N3904
SYMBOL cap 848 -16 R90
WINDOW 0 0 32 VBottom 2
WINDOW 3 32 32 VTop 2
SYMATTR InstName C3
SYMATTR Value 10µ
SYMBOL res 720 128 R0
SYMATTR InstName R8
SYMATTR Value 10k
SYMBOL res 880 0 R0
SYMATTR InstName R9
SYMATTR Value 10k
SYMBOL res 880 128 R0
SYMATTR InstName R10
SYMATTR Value 680k
SYMBOL res 1040 -16 R90
WINDOW 0 0 56 VBottom 2
WINDOW 3 32 56 VTop 2
SYMATTR InstName R11
SYMATTR Value 36k
SYMBOL pot 1120 -16 R90
SYMATTR InstName U1
SYMATTR Value R=1Meg
SYMATTR Value2 W={W}
SYMBOL npn 1168 -48 R0
SYMATTR InstName Q3
SYMATTR Value 2N3904
SYMBOL res 1216 -192 R0
SYMATTR InstName R12
SYMATTR Value 47k
SYMBOL npn 1536 -112 R0
SYMATTR InstName Q4
SYMATTR Value 2N3904
SYMBOL res 1216 128 R0
SYMATTR InstName R13
SYMATTR Value 1k
SYMBOL res 1360 96 R90
WINDOW 0 0 56 VBottom 2
WINDOW 3 32 56 VTop 2
SYMATTR InstName R14
SYMATTR Value 47k
SYMBOL res 1360 128 R0
SYMATTR InstName R15
SYMATTR Value 100k
SYMBOL cap 1456 160 R0
SYMATTR InstName C4
SYMATTR Value 100n
SYMBOL res 1584 96 R90
WINDOW 0 0 56 VBottom 2
WINDOW 3 32 56 VTop 2
SYMATTR InstName R16
SYMATTR Value 100k
SYMBOL res 1584 128 R0
SYMATTR InstName R17
SYMATTR Value 4.7k
SYMBOL res 1584 -240 R0
SYMATTR InstName R18
SYMATTR Value 4.7k
SYMBOL cap 1728 -144 R90
WINDOW 0 0 32 VBottom 2
WINDOW 3 32 32 VTop 2
SYMATTR InstName C5
SYMATTR Value 10µ
SYMBOL cap 1728 64 R90
WINDOW 0 0 32 VBottom 2
WINDOW 3 32 32 VTop 2
SYMATTR InstName C6
SYMATTR Value 10µ
SYMBOL cap 1440 64 R90
WINDOW 0 0 32 VBottom 2
WINDOW 3 32 32 VTop 2
SYMATTR InstName C7
SYMATTR Value 1n
SYMBOL res 1744 128 R0
SYMATTR InstName R19
SYMATTR Value 100k
SYMBOL res 1744 -96 R0
SYMATTR InstName R20
SYMATTR Value 100k
SYMBOL diode 1888 -144 R90
WINDOW 0 0 32 VBottom 2
WINDOW 3 32 32 VTop 2
SYMATTR InstName D1
SYMATTR Value 1N4148
SYMBOL diode 1888 64 R90
WINDOW 0 0 32 VBottom 2
WINDOW 3 32 32 VTop 2
SYMATTR InstName D2
SYMATTR Value 1N4148
SYMBOL res 1904 -240 R0
SYMATTR InstName R21
SYMATTR Value 100k
SYMBOL cap 2064 -144 R90
WINDOW 0 0 32 VBottom 2
WINDOW 3 32 32 VTop 2
SYMATTR InstName C8
SYMATTR Value 10µ
SYMBOL voltage 896 -432 R0
WINDOW 123 0 0 Left 2
WINDOW 39 0 0 Left 2
SYMATTR InstName V2
SYMATTR Value 9
SYMBOL pot 2080 -48 R0
WINDOW 0 0 0 Invisible 2
SYMATTR InstName U2
SYMATTR Value R=100k
SYMATTR Value2 W=0.5
SYMATTR SpiceModel pot_log
TEXT -136 184 Left 2 !.tran 0 30m 15m
TEXT -192 216 Left 2 !;ac dec 500 10 10000
TEXT 1160 -304 Left 2 !.step param W 0 1 0.2
