Version 4
SHEET 1 2952 680
WIRE 928 -256 928 -272
WIRE 1056 -256 928 -256
WIRE 1216 -256 1056 -256
WIRE 1248 -256 1216 -256
WIRE 1216 -240 1216 -256
WIRE 928 -224 928 -256
WIRE 1056 -224 1056 -256
WIRE 1248 -208 1248 -256
WIRE 464 -80 464 -112
WIRE 528 -80 464 -80
WIRE 640 -80 592 -80
WIRE 784 -80 784 -112
WIRE 848 -80 784 -80
WIRE 928 -80 928 -144
WIRE 928 -80 912 -80
WIRE 960 -80 928 -80
WIRE 1088 -80 1024 -80
WIRE 464 -48 464 -80
WIRE 784 -48 784 -80
WIRE 1408 -48 1408 -80
WIRE 256 0 112 0
WIRE 368 0 368 -112
WIRE 368 0 320 0
WIRE 400 0 368 0
WIRE 640 0 640 -80
WIRE 688 0 688 -112
WIRE 688 0 640 0
WIRE 720 0 688 0
WIRE 1056 0 1056 -144
WIRE 1056 0 928 0
WIRE 1088 0 1088 -80
WIRE 1168 0 1088 0
WIRE 1312 0 1312 -112
WIRE 1312 0 1232 0
WIRE 1344 0 1312 0
WIRE 464 64 464 48
WIRE 528 64 464 64
WIRE 608 64 592 64
WIRE 784 64 784 48
WIRE 848 64 784 64
WIRE 928 64 928 0
WIRE 928 64 912 64
WIRE 960 64 928 64
WIRE 1088 64 1088 0
WIRE 1088 64 1024 64
WIRE 1408 64 1408 48
WIRE 1472 64 1408 64
WIRE 1552 64 1536 64
WIRE 1584 64 1552 64
WIRE 368 80 368 0
WIRE 464 80 464 64
WIRE 688 80 688 0
WIRE 784 80 784 64
WIRE 1088 80 1088 64
WIRE 1312 80 1312 0
WIRE 1408 80 1408 64
WIRE 1552 80 1552 64
WIRE 608 96 608 64
WIRE 608 96 560 96
WIRE 112 144 112 0
FLAG 112 224 0
FLAG 464 160 0
FLAG 464 -192 V+
FLAG 576 -320 0
FLAG 576 -400 V+
FLAG 368 -192 V+
FLAG 368 160 0
FLAG 560 160 0
FLAG 784 160 0
FLAG 784 -192 V+
FLAG 688 -192 V+
FLAG 688 160 0
FLAG 928 -352 V+
FLAG 1216 -176 0
FLAG 1088 160 0
FLAG 1408 160 0
FLAG 1408 -80 V+
FLAG 1312 -192 V+
FLAG 1312 160 0
FLAG 1552 160 0
SYMBOL voltage 112 128 R0
WINDOW 123 24 124 Left 2
WINDOW 39 0 0 Left 2
SYMATTR Value2 AC 1
SYMATTR InstName V1
SYMATTR Value SINE(0 1 500)
SYMBOL cap 320 -16 R90
WINDOW 0 0 32 VBottom 2
WINDOW 3 32 32 VTop 2
SYMATTR InstName C1
SYMATTR Value 10µ
SYMBOL res 448 64 R0
SYMATTR InstName R4
SYMATTR Value 1k
SYMBOL npn 400 -48 R0
SYMATTR InstName Q1
SYMATTR Value 2N3904
SYMBOL res 448 -208 R0
SYMATTR InstName R5
SYMATTR Value 4.7k
SYMBOL voltage 576 -416 R0
WINDOW 123 0 0 Left 2
WINDOW 39 0 0 Left 2
SYMATTR InstName V2
SYMATTR Value 9
SYMBOL pot 592 48 R90
WINDOW 0 0 0 Invisible 2
SYMATTR InstName U3
SYMATTR Value R=2k
SYMATTR Value2 W=0.5
SYMBOL res 352 -208 R0
SYMATTR InstName R1
SYMATTR Value 100k
SYMBOL res 352 64 R0
SYMATTR InstName R2
SYMATTR Value 22k
SYMBOL cap 544 96 R0
SYMATTR InstName C2
SYMATTR Value 220µ
SYMBOL cap 592 -96 R90
WINDOW 0 0 32 VBottom 2
WINDOW 3 32 32 VTop 2
SYMATTR InstName C3
SYMATTR Value 10µ
SYMBOL res 768 64 R0
SYMATTR InstName R3
SYMATTR Value 2.2k
SYMBOL npn 720 -48 R0
SYMATTR InstName Q2
SYMATTR Value 2N3904
SYMBOL res 768 -208 R0
SYMATTR InstName R6
SYMATTR Value 2.2k
SYMBOL res 672 -208 R0
SYMATTR InstName R7
SYMATTR Value 22k
SYMBOL res 672 64 R0
SYMATTR InstName R8
SYMATTR Value 15k
SYMBOL cap 912 -96 R90
WINDOW 0 0 32 VBottom 2
WINDOW 3 32 32 VTop 2
SYMATTR InstName C4
SYMATTR Value 2.2µ
SYMBOL diode 960 -64 R270
WINDOW 0 32 32 VTop 2
WINDOW 3 0 32 VBottom 2
SYMATTR InstName D1
SYMATTR Value 1N4148
SYMBOL res 912 -240 R0
SYMATTR InstName R9
SYMATTR Value 100k
SYMBOL cap 912 48 R90
WINDOW 0 0 32 VBottom 2
WINDOW 3 32 32 VTop 2
SYMATTR InstName C5
SYMATTR Value 2.2µ
SYMBOL diode 960 80 R270
WINDOW 0 32 32 VTop 2
WINDOW 3 0 32 VBottom 2
SYMATTR InstName D2
SYMATTR Value 1N4148
SYMBOL res 1040 -240 R0
SYMATTR InstName R10
SYMATTR Value 100k
SYMBOL res 912 -368 R0
SYMATTR InstName R11
SYMATTR Value 39k
SYMBOL pot 1200 -240 R0
WINDOW 0 0 0 Invisible 2
SYMATTR InstName U2
SYMATTR Value2 W={W}
SYMATTR SpiceModel pot_log
SYMBOL res 1072 64 R0
SYMATTR InstName R12
SYMATTR Value 10k
SYMBOL cap 1232 -16 R90
WINDOW 0 0 32 VBottom 2
WINDOW 3 32 32 VTop 2
SYMATTR InstName C6
SYMATTR Value 2.2µ
SYMBOL res 1392 64 R0
SYMATTR InstName R13
SYMATTR Value 10k
SYMBOL npn 1344 -48 R0
SYMATTR InstName Q3
SYMATTR Value 2N3904
SYMBOL res 1296 -208 R0
SYMATTR InstName R15
SYMATTR Value 47k
SYMBOL res 1296 64 R0
SYMATTR InstName R16
SYMATTR Value 47k
SYMBOL cap 1536 48 R90
WINDOW 0 0 32 VBottom 2
WINDOW 3 32 32 VTop 2
SYMATTR InstName C7
SYMATTR Value 10µ
SYMBOL res 1536 64 R0
SYMATTR InstName R14
SYMATTR Value 100k
TEXT -136 184 Left 2 !.tran 0 30m 15m
TEXT -192 216 Left 2 !;ac dec 500 10 10000
TEXT 1160 -304 Left 2 !.step param W 0 1 0.2
