Version 4
SHEET 1 1872 680
WIRE 1248 -288 1216 -288
WIRE 1296 -288 1248 -288
WIRE 1376 -288 1296 -288
WIRE 1296 -272 1296 -288
WIRE 1248 -240 1248 -288
WIRE 1376 -192 1376 -208
WIRE 1456 -192 1376 -192
WIRE 1488 -192 1456 -192
WIRE 1376 -176 1376 -192
WIRE 1456 -176 1456 -192
WIRE 768 -128 752 -128
WIRE 816 -128 768 -128
WIRE 320 -96 304 -96
WIRE 384 -96 320 -96
WIRE 320 -48 320 -96
WIRE 432 -48 432 -64
WIRE 432 -48 384 -48
WIRE 768 -48 768 -128
WIRE 864 -48 864 -96
WIRE 864 -48 832 -48
WIRE 944 -48 864 -48
WIRE 864 -16 864 -48
WIRE 1120 -16 1088 -16
WIRE 1200 -16 1184 -16
WIRE 432 0 432 -48
WIRE 432 0 336 0
WIRE 496 0 432 0
WIRE 592 0 560 0
WIRE 640 0 592 0
WIRE 992 0 992 -16
WIRE 1088 0 1088 -16
WIRE 1088 0 992 0
WIRE 1200 0 1200 -16
WIRE 336 16 336 0
WIRE 592 16 592 0
WIRE 992 16 992 0
WIRE 1312 32 1232 32
WIRE 704 48 704 0
WIRE 704 48 624 48
WIRE 816 48 784 48
WIRE 432 64 432 0
WIRE 1472 64 1344 64
WIRE 1120 80 1088 80
WIRE 1200 80 1200 64
WIRE 1200 80 1184 80
WIRE 864 96 864 80
WIRE 928 96 864 96
WIRE 864 112 864 96
WIRE 208 128 144 128
WIRE 240 128 208 128
WIRE 336 128 320 128
WIRE 384 128 336 128
WIRE 1088 128 1088 80
WIRE 208 144 208 128
WIRE 496 160 432 160
WIRE 144 176 144 128
WIRE 432 176 432 160
WIRE 1088 208 1088 192
WIRE 1136 208 1088 208
WIRE 1088 224 1088 208
WIRE 1136 256 1136 208
WIRE 1136 256 1120 256
FLAG 144 256 0
FLAG 224 -96 Vref
FLAG 432 -160 V+
FLAG 208 224 0
FLAG 336 192 0
FLAG 432 240 0
FLAG 496 240 0
FLAG 592 80 0
FLAG 864 176 0
FLAG 928 176 0
FLAG 672 -128 Vref
FLAG 864 -192 V+
FLAG 992 -112 V+
FLAG 992 96 0
FLAG 1088 288 0
FLAG 1312 96 0
FLAG 1248 -160 0
FLAG 1376 -96 0
FLAG 1456 -112 0
FLAG 1296 -208 0
FLAG 1216 -288 V+
FLAG 1488 -192 Vref
FLAG 336 80 0
SYMBOL voltage 144 160 R0
WINDOW 0 -80 16 Left 2
WINDOW 3 -221 80 Left 2
WINDOW 123 -108 110 Left 2
WINDOW 39 0 0 Left 2
SYMATTR InstName V1
SYMATTR Value SINE(0 600m 250)
SYMATTR Value2 AC 1
SYMBOL res 192 128 R0
SYMATTR InstName R1
SYMATTR Value 2meg
SYMBOL res 224 144 R270
WINDOW 0 32 56 VTop 2
WINDOW 3 0 56 VBottom 2
SYMATTR InstName R2
SYMATTR Value 33k
SYMBOL cap 320 128 R0
SYMATTR InstName C1
SYMATTR Value 220p
SYMBOL njf 384 64 R0
SYMATTR InstName J1
SYMATTR Value J201
SYMBOL res 480 144 R0
SYMATTR InstName R3
SYMATTR Value 2k
SYMBOL cap 416 176 R0
SYMATTR InstName C2
SYMATTR Value 1
SYMBOL njf 384 -160 R0
SYMATTR InstName J2
SYMATTR Value J201
SYMBOL cap 320 -32 R270
WINDOW 0 32 32 VTop 2
WINDOW 3 0 32 VBottom 2
SYMATTR InstName C3
SYMATTR Value 47n
SYMBOL cap 320 16 R0
SYMATTR InstName C4
SYMATTR Value 1n
SYMBOL res 320 -112 R90
WINDOW 0 0 56 VBottom 2
WINDOW 3 32 56 VTop 2
SYMATTR InstName R4
SYMATTR Value 560k
SYMBOL cap 560 -16 R90
WINDOW 0 0 32 VBottom 2
WINDOW 3 32 32 VTop 2
SYMATTR InstName C5
SYMATTR Value 22n
SYMBOL pot 576 16 R0
SYMATTR InstName U1
SYMATTR Value R=1meg
SYMATTR Value2 W=0.5
SYMBOL cap 704 -16 R90
WINDOW 0 0 32 VBottom 2
WINDOW 3 32 32 VTop 2
SYMATTR InstName C6
SYMATTR Value 470p
SYMBOL res 800 32 R90
WINDOW 0 0 56 VBottom 2
WINDOW 3 32 56 VTop 2
SYMATTR InstName R5
SYMATTR Value 680k
SYMBOL njf 816 -16 R0
SYMATTR InstName J3
SYMATTR Value J201
SYMBOL cap 848 112 R0
SYMATTR InstName C7
SYMATTR Value 2.2
SYMBOL res 912 80 R0
SYMATTR InstName R6
SYMATTR Value 2k
SYMBOL njf 816 -192 R0
SYMATTR InstName J4
SYMATTR Value J201
SYMBOL cap 832 -64 R90
WINDOW 0 0 32 VBottom 2
WINDOW 3 32 32 VTop 2
SYMATTR InstName C8
SYMATTR Value 330n
SYMBOL res 768 -144 R90
WINDOW 0 0 56 VBottom 2
WINDOW 3 32 56 VTop 2
SYMATTR InstName R7
SYMATTR Value 1meg
SYMBOL njf 944 -112 R0
SYMATTR InstName J5
SYMATTR Value J201
SYMBOL res 976 0 R0
WINDOW 0 -26 10 Left 2
WINDOW 3 25 60 Left 2
SYMATTR InstName R8
SYMATTR Value 10k
SYMBOL res 1072 -16 R0
WINDOW 0 -26 16 Left 2
WINDOW 3 -29 39 Left 2
SYMATTR InstName R9
SYMATTR Value 10k
SYMBOL cap 1184 -32 R90
WINDOW 0 0 32 VBottom 2
WINDOW 3 32 32 VTop 2
SYMATTR InstName C9
SYMATTR Value 2.2n
SYMBOL pot 1184 0 R0
SYMATTR InstName U2
SYMATTR Value R=50k
SYMATTR Value2 W=0.5
SYMBOL cap 1184 64 R90
WINDOW 0 0 32 VBottom 2
WINDOW 3 32 32 VTop 2
SYMATTR InstName C10
SYMATTR Value 220n
SYMBOL cap 1072 128 R0
SYMATTR InstName C11
SYMATTR Value 68n
SYMBOL pot 1072 224 R0
SYMATTR InstName U3
SYMATTR Value R=10k
SYMATTR Value2 W=0.5
SYMBOL pot 1296 32 R0
SYMATTR InstName U4
SYMATTR Value R=100k
SYMATTR Value2 W=0.2
SYMBOL cap 1280 -272 R0
SYMATTR InstName C12
SYMATTR Value 47
SYMBOL res 1360 -304 R0
SYMATTR InstName R10
SYMATTR Value 10k
SYMBOL res 1360 -192 R0
SYMATTR InstName R11
SYMATTR Value 10k
SYMBOL cap 1440 -176 R0
SYMATTR InstName C13
SYMATTR Value 47
SYMBOL voltage 1248 -256 R0
WINDOW 123 0 0 Left 2
WINDOW 39 0 0 Left 2
SYMATTR InstName V2
SYMATTR Value 9
TEXT 344 280 Left 2 !;.step param D list 0.05, 0.25, 0.5, 0.75, 0.95
TEXT 536 -288 Left 2 !.tran 0 30ms 0 1u
TEXT 544 -248 Left 2 !;ac dec 10000 20 10000
TEXT 1312 -32 Left 2 !;.step param W list 0.05, 0.25, 0.5, 0.75, 0.95
TEXT 1312 0 Left 2 !;.step param R list 50k, 100k
