Version 4
SHEET 1 1716 680
WIRE 560 -160 544 -160
WIRE 640 -160 624 -160
WIRE 208 -80 208 -96
WIRE 208 -80 176 -80
WIRE 304 -80 208 -80
WIRE 1152 -80 1120 -80
WIRE 1248 -80 1232 -80
WIRE 1264 -80 1248 -80
WIRE 1344 -80 1328 -80
WIRE 1360 -80 1344 -80
WIRE 1520 -80 1440 -80
WIRE 80 -64 80 -112
WIRE 208 -64 208 -80
WIRE 304 -64 304 -80
WIRE 1248 -48 1248 -80
WIRE 1344 -48 1344 -80
WIRE 448 0 416 0
WIRE 544 0 544 -160
WIRE 544 0 528 0
WIRE 560 0 544 0
WIRE 640 0 640 -160
WIRE 640 0 624 0
WIRE 656 0 640 0
WIRE 816 0 736 0
WIRE 1248 48 1248 16
WIRE 1296 48 1296 -48
WIRE 1296 48 1248 48
WIRE 1344 48 1344 16
WIRE 1344 48 1296 48
WIRE 1296 64 1296 48
WIRE 672 80 624 80
WIRE 816 80 816 0
WIRE 816 80 736 80
WIRE 304 176 240 176
WIRE 336 176 304 176
WIRE 416 176 416 0
WIRE 416 176 400 176
WIRE 592 176 592 32
WIRE 624 176 624 80
WIRE 624 176 592 176
WIRE 704 176 624 176
WIRE 816 192 816 80
WIRE 816 192 768 192
WIRE 864 192 816 192
WIRE 976 192 928 192
WIRE 1040 192 1008 192
WIRE 1120 192 1120 -80
WIRE 1120 192 1104 192
WIRE 1296 192 1296 144
WIRE 1408 192 1296 192
WIRE 704 208 672 208
WIRE 1520 208 1520 -80
WIRE 1520 208 1472 208
WIRE 1568 208 1520 208
WIRE 1712 208 1632 208
WIRE 592 224 592 176
WIRE 1296 224 1296 192
WIRE 1408 224 1376 224
WIRE 240 240 240 176
WIRE 592 304 592 288
WIRE 1296 320 1296 304
WIRE 416 336 416 176
WIRE 448 336 416 336
WIRE 560 336 528 336
WIRE 656 336 624 336
WIRE 816 336 816 192
WIRE 816 336 736 336
WIRE 1120 352 1120 192
WIRE 1168 352 1120 352
WIRE 1264 352 1232 352
WIRE 1360 352 1328 352
WIRE 1520 352 1520 208
WIRE 1520 352 1424 352
WIRE 304 496 304 176
WIRE 1008 496 1008 192
WIRE 1008 496 304 496
FLAG 240 320 0
FLAG 80 16 0
FLAG 80 -112 V+
FLAG 736 160 V+
FLAG 736 224 0
FLAG 208 16 0
FLAG 304 0 0
FLAG 208 -176 V+
FLAG 176 -80 Vref
FLAG 672 208 Vref
FLAG 1440 176 V+
FLAG 1440 240 0
FLAG 1376 224 Vref
SYMBOL voltage 240 224 R0
WINDOW 123 24 124 Left 2
WINDOW 39 0 0 Left 2
SYMATTR Value2 AC 1
SYMATTR InstName V1
SYMATTR Value SINE(0 1 250)
SYMBOL voltage 80 -80 R0
WINDOW 123 0 0 Left 2
WINDOW 39 0 0 Left 2
SYMATTR InstName V2
SYMATTR Value 9
SYMBOL EXTRA\\AudioOpamp\\TI\\TL072_TI 736 192 R0
SYMATTR InstName U3
SYMBOL cap 400 160 R90
WINDOW 0 0 32 VBottom 2
WINDOW 3 32 32 VTop 2
SYMATTR InstName C1
SYMATTR Value 10µ
SYMBOL res 192 -192 R0
SYMATTR InstName R2
SYMATTR Value 10k
SYMBOL res 192 -80 R0
SYMATTR InstName R3
SYMATTR Value 10k
SYMBOL cap 288 -64 R0
SYMATTR InstName C2
SYMATTR Value 100µ
SYMBOL pot 560 -16 M90
SYMATTR InstName U2
SYMATTR Value R=50k
SYMATTR Value2 W=0.5
SYMBOL res 544 -16 R90
WINDOW 0 0 56 VBottom 2
WINDOW 3 32 56 VTop 2
SYMATTR InstName R1
SYMATTR Value 22k
SYMBOL res 752 -16 R90
WINDOW 0 0 56 VBottom 2
WINDOW 3 32 56 VTop 2
SYMATTR InstName R4
SYMATTR Value 22k
SYMBOL cap 624 -176 R90
WINDOW 0 0 32 VBottom 2
WINDOW 3 32 32 VTop 2
SYMATTR InstName C3
SYMATTR Value 10n
SYMBOL res 544 320 R90
WINDOW 0 0 56 VBottom 2
WINDOW 3 32 56 VTop 2
SYMATTR InstName R5
SYMATTR Value 15k
SYMBOL pot 560 352 R270
SYMATTR InstName U1
SYMATTR Value R=50k
SYMATTR Value2 W={W}
SYMBOL cap 608 288 R180
WINDOW 0 24 56 Left 2
WINDOW 3 24 8 Left 2
SYMATTR InstName C4
SYMATTR Value 10n
SYMBOL res 752 320 R90
WINDOW 0 0 56 VBottom 2
WINDOW 3 32 56 VTop 2
SYMATTR InstName R6
SYMATTR Value 15k
SYMBOL cap 736 64 R90
WINDOW 0 0 32 VBottom 2
WINDOW 3 32 32 VTop 2
SYMATTR InstName C5
SYMATTR Value 10p
SYMBOL cap 928 176 R90
WINDOW 0 0 32 VBottom 2
WINDOW 3 32 32 VTop 2
SYMATTR InstName C6
SYMATTR Value 10µ
SYMBOL EXTRA\\AudioOpamp\\TI\\TL072_TI 1440 208 R0
SYMATTR InstName U4
SYMBOL pot 1264 -96 M90
SYMATTR InstName U5
SYMATTR Value R=50k
SYMATTR Value2 W=0.5
SYMBOL res 1248 -96 R90
WINDOW 0 0 56 VBottom 2
WINDOW 3 32 56 VTop 2
SYMATTR InstName R7
SYMATTR Value 4.7k
SYMBOL res 1456 -96 R90
WINDOW 0 0 56 VBottom 2
WINDOW 3 32 56 VTop 2
SYMATTR InstName R8
SYMATTR Value 4.7k
SYMBOL pot 1264 368 R270
SYMATTR InstName U6
SYMATTR Value R=50k
SYMATTR Value2 W={W}
SYMBOL cap 1632 192 R90
WINDOW 0 0 32 VBottom 2
WINDOW 3 32 32 VTop 2
SYMATTR InstName C10
SYMATTR Value 10µ
SYMBOL cap 1104 176 R90
WINDOW 0 0 32 VBottom 2
WINDOW 3 32 32 VTop 2
SYMATTR InstName C11
SYMATTR Value 10µ
SYMBOL cap 1328 -48 R0
SYMATTR InstName C7
SYMATTR Value 47n
SYMBOL cap 1232 -48 R0
SYMATTR InstName C9
SYMATTR Value 47n
SYMBOL res 1312 160 R180
WINDOW 0 36 76 Left 2
WINDOW 3 36 40 Left 2
SYMATTR InstName R11
SYMATTR Value 33k
SYMBOL res 1312 320 R180
WINDOW 0 36 76 Left 2
WINDOW 3 36 40 Left 2
SYMATTR InstName R12
SYMATTR Value 4.7k
SYMBOL cap 1232 336 R90
WINDOW 0 0 32 VBottom 2
WINDOW 3 32 32 VTop 2
SYMATTR InstName C8
SYMATTR Value 10n
SYMBOL cap 1424 336 R90
WINDOW 0 0 32 VBottom 2
WINDOW 3 32 32 VTop 2
SYMATTR InstName C12
SYMATTR Value 10n
TEXT -16 112 Left 2 !;tran 20m
TEXT -16 152 Left 2 !.ac dec 500 10 10000
TEXT -16 184 Left 2 !.step param W 0 1 0.2
