Version 4
SHEET 1 2644 680
WIRE 1520 -736 1488 -736
WIRE 1440 -608 1424 -608
WIRE 1520 -608 1520 -736
WIRE 1520 -608 1504 -608
WIRE 1536 -608 1520 -608
WIRE 1632 -608 1600 -608
WIRE 1728 -608 1712 -608
WIRE 352 -576 304 -576
WIRE 480 -576 432 -576
WIRE 512 -576 480 -576
WIRE 608 -576 576 -576
WIRE 784 -544 736 -544
WIRE 848 -544 784 -544
WIRE 960 -544 928 -544
WIRE 976 -544 960 -544
WIRE 1056 -544 1040 -544
WIRE 1136 -544 1120 -544
WIRE 1520 -512 1520 -608
WIRE 1520 -512 1472 -512
WIRE 1568 -512 1520 -512
WIRE 1728 -512 1728 -608
WIRE 1728 -512 1648 -512
WIRE 784 -480 784 -544
WIRE 480 -464 480 -576
WIRE 512 -464 480 -464
WIRE 608 -448 608 -576
WIRE 608 -448 576 -448
WIRE 640 -448 608 -448
WIRE 736 -448 736 -544
WIRE 736 -448 720 -448
WIRE 752 -448 736 -448
WIRE 960 -448 960 -544
WIRE 960 -448 816 -448
WIRE 992 -448 960 -448
WIRE 512 -432 480 -432
WIRE 1136 -432 1136 -544
WIRE 1136 -432 1056 -432
WIRE 1168 -432 1136 -432
WIRE 1296 -432 1248 -432
WIRE 1344 -432 1296 -432
WIRE 1456 -432 1344 -432
WIRE 992 -416 960 -416
WIRE 1296 -416 1296 -432
WIRE 1344 -416 1344 -432
WIRE 1456 -416 1456 -432
WIRE 1520 -416 1520 -512
WIRE 1568 -416 1520 -416
WIRE 1728 -400 1728 -512
WIRE 1728 -400 1632 -400
WIRE 1776 -400 1728 -400
WIRE 1568 -384 1488 -384
WIRE 480 -336 480 -432
WIRE 512 -336 480 -336
WIRE 608 -336 608 -448
WIRE 608 -336 592 -336
WIRE 480 -272 480 -336
WIRE 768 -272 480 -272
WIRE 1136 -272 1136 -432
WIRE 1136 -272 848 -272
WIRE 1184 -224 1184 -272
WIRE 1264 -224 1184 -224
WIRE 1360 -224 1264 -224
WIRE 1360 -208 1360 -224
WIRE 1632 -208 1504 -208
WIRE 1264 -192 1264 -224
WIRE 1184 -160 1184 -224
WIRE 1504 -144 1504 -208
WIRE 1520 -144 1504 -144
WIRE 1632 -128 1632 -208
WIRE 1632 -128 1584 -128
WIRE 1680 -128 1632 -128
WIRE 1744 -128 1680 -128
WIRE 1360 -112 1360 -128
WIRE 1440 -112 1360 -112
WIRE 1520 -112 1440 -112
WIRE 1360 -96 1360 -112
WIRE 1440 -96 1440 -112
WIRE 1680 -96 1680 -128
FLAG 1184 -80 0
FLAG 1264 -128 0
FLAG 1360 -16 0
FLAG 1440 -32 0
FLAG 1184 -272 V+
FLAG 304 -576 Vref
FLAG 544 -480 V+
FLAG 544 -416 0
FLAG 1024 -464 V+
FLAG 1024 -400 0
FLAG 960 -416 Vref
FLAG 1296 -352 Vref
FLAG 1344 -352 Vref
FLAG 1456 -352 Vref
FLAG 1600 -432 V+
FLAG 1600 -368 0
FLAG 1392 -512 Vref
FLAG 1344 -608 Vref
FLAG 1776 -400 LFO
FLAG 1552 -160 V+
FLAG 1552 -96 0
FLAG 1680 -32 0
FLAG 1744 -128 Vref
FLAG 1408 -736 V+
SYMBOL voltage 1184 -176 R0
WINDOW 123 0 0 Left 2
WINDOW 39 0 0 Left 2
SYMATTR InstName V1
SYMATTR Value 9
SYMBOL cap 1248 -192 R0
SYMATTR InstName C1
SYMATTR Value 220µ
SYMBOL res 1344 -224 R0
SYMATTR InstName R1
SYMATTR Value 10k
SYMBOL res 1344 -112 R0
SYMATTR InstName R2
SYMATTR Value 10k
SYMBOL cap 1424 -96 R0
SYMATTR InstName C2
SYMATTR Value 47µ
SYMBOL res 448 -592 R90
WINDOW 0 0 56 VBottom 2
WINDOW 3 32 56 VTop 2
SYMATTR InstName R3
SYMATTR Value 100k
SYMBOL EXTRA\\AudioOpamp\\TI\\TL072_TI 544 -448 R0
SYMATTR InstName U2
SYMBOL cap 576 -592 R90
WINDOW 0 0 32 VBottom 2
WINDOW 3 32 32 VTop 2
SYMATTR InstName C3
SYMATTR Value 10n
SYMBOL res 608 -352 R90
WINDOW 0 0 56 VBottom 2
WINDOW 3 32 56 VTop 2
SYMATTR InstName R4
SYMATTR Value 220k
SYMBOL res 736 -464 R90
WINDOW 0 0 56 VBottom 2
WINDOW 3 32 56 VTop 2
SYMATTR InstName R5
SYMATTR Value 12k
SYMBOL pot 752 -432 R270
SYMATTR InstName U3
SYMATTR Value R=500k
SYMATTR Value2 W={W}
SYMBOL res 944 -560 R90
WINDOW 0 0 56 VBottom 2
WINDOW 3 32 56 VTop 2
SYMATTR InstName R6
SYMATTR Value 820k
SYMBOL EXTRA\\AudioOpamp\\TI\\TL072_TI 1024 -432 R0
SYMATTR InstName U4
SYMBOL cap 1040 -560 R90
WINDOW 0 0 32 VBottom 2
WINDOW 3 32 32 VTop 2
SYMATTR InstName C4
SYMATTR Value 10µ
SYMBOL cap 1120 -560 R90
WINDOW 0 0 32 VBottom 2
WINDOW 3 32 32 VTop 2
SYMATTR InstName C5
SYMATTR Value 10µ
SYMBOL res 864 -288 R90
WINDOW 0 0 56 VBottom 2
WINDOW 3 32 56 VTop 2
SYMATTR InstName R7
SYMATTR Value 68k
SYMBOL diode 1328 -416 R0
SYMATTR InstName D1
SYMATTR Value 1N4148
SYMBOL diode 1312 -352 R180
WINDOW 0 24 64 Left 2
WINDOW 3 24 0 Left 2
SYMATTR InstName D2
SYMATTR Value 1N4148
SYMBOL pot 1440 -416 R0
SYMATTR InstName U5
SYMATTR Value2 W=0.5
SYMBOL EXTRA\\AudioOpamp\\TI\\TL072_TI 1600 -400 R0
SYMATTR InstName U6
SYMBOL res 1664 -528 R90
WINDOW 0 0 56 VBottom 2
WINDOW 3 32 56 VTop 2
SYMATTR InstName R8
SYMATTR Value 100k
SYMBOL res 1728 -624 R90
WINDOW 0 0 56 VBottom 2
WINDOW 3 32 56 VTop 2
SYMATTR InstName R9
SYMATTR Value 68k
SYMBOL LED 1536 -592 R270
WINDOW 0 72 32 VTop 2
WINDOW 3 0 32 VBottom 2
SYMATTR InstName D3
SYMATTR Value LUW-W5AP
SYMBOL res 1488 -528 R90
WINDOW 0 0 56 VBottom 2
WINDOW 3 32 56 VTop 2
SYMATTR InstName R10
SYMATTR Value 33k
SYMBOL diode 1504 -624 R90
WINDOW 0 0 32 VBottom 2
WINDOW 3 32 32 VTop 2
SYMATTR InstName D4
SYMATTR Value 1N4148
SYMBOL res 1440 -624 R90
WINDOW 0 0 56 VBottom 2
WINDOW 3 32 56 VTop 2
SYMATTR InstName R11
SYMATTR Value 3.3k
SYMBOL res 1264 -448 R90
WINDOW 0 0 56 VBottom 2
WINDOW 3 32 56 VTop 2
SYMATTR InstName R13
SYMATTR Value 4.7k
SYMBOL EXTRA\\AudioOpamp\\TI\\TL072_TI 1552 -128 R0
SYMATTR InstName U1
SYMBOL cap 1664 -96 R0
SYMATTR InstName C6
SYMATTR Value 47µ
SYMBOL res 1504 -752 R90
WINDOW 0 0 56 VBottom 2
WINDOW 3 32 56 VTop 2
SYMATTR InstName R12
SYMATTR Value 270k
TEXT 952 -648 Left 2 !.tran 0 30 20
TEXT 952 -680 Left 2 !;ac dec 10000 10 10000
TEXT 648 -672 Left 2 !.step param W 0 1 0.2
