Version 4
SHEET 1 2708 680
WIRE 1264 -608 1232 -608
WIRE 1376 -608 1328 -608
WIRE 1472 -608 1376 -608
WIRE 1376 -592 1376 -608
WIRE 2128 -576 2128 -608
WIRE 2032 -560 2032 -576
WIRE 2272 -480 2272 -512
WIRE 1232 -432 1232 -608
WIRE 1232 -432 640 -432
WIRE 1472 -432 1440 -432
WIRE 1504 -432 1472 -432
WIRE 1616 -432 1584 -432
WIRE 1648 -432 1616 -432
WIRE 1760 -432 1728 -432
WIRE 1792 -432 1760 -432
WIRE 1888 -432 1872 -432
WIRE 1920 -432 1888 -432
WIRE 2032 -432 2032 -480
WIRE 2032 -432 2000 -432
WIRE 2128 -432 2128 -496
WIRE 2128 -432 2032 -432
WIRE 2208 -432 2128 -432
WIRE 1472 -400 1472 -432
WIRE 1616 -400 1616 -432
WIRE 1760 -400 1760 -432
WIRE 2272 -352 2272 -384
WIRE 2320 -352 2272 -352
WIRE 2432 -352 2384 -352
WIRE 1888 -336 1888 -432
WIRE 1936 -336 1888 -336
WIRE 2032 -336 2032 -432
WIRE 2032 -336 2000 -336
WIRE 2272 -320 2272 -352
WIRE 2432 -304 2432 -352
WIRE 800 -288 736 -288
WIRE 1088 -288 1024 -288
WIRE 2032 -288 2032 -336
WIRE 2576 -272 2464 -272
WIRE 1888 -240 1888 -336
WIRE 1968 -240 1888 -240
WIRE 800 -224 688 -224
WIRE 1232 -224 1232 -432
WIRE 416 -192 336 -192
WIRE 496 -192 416 -192
WIRE 2032 -176 2032 -192
WIRE 416 -160 416 -192
WIRE 640 -160 640 -432
WIRE 800 -160 640 -160
WIRE 1104 -160 1024 -160
WIRE 336 -128 336 -192
WIRE 800 -96 736 -96
WIRE 1056 -96 1024 -96
WIRE 688 -48 688 -224
WIRE 1104 -48 1104 -160
WIRE 1104 -48 688 -48
WIRE 1168 -48 1104 -48
WIRE 1232 -48 1232 -144
WIRE 1232 -48 1168 -48
WIRE 1056 -32 1056 -96
WIRE 1168 -32 1168 -48
FLAG 336 -48 0
FLAG 416 -96 0
FLAG 496 -192 V+
FLAG 736 -96 V+
FLAG 1088 -288 V+
FLAG 1168 32 0
FLAG 736 -288 0
FLAG 1056 32 0
FLAG 1472 -336 0
FLAG 1616 -336 0
FLAG 1760 -336 0
FLAG 2032 -176 0
FLAG 2032 -576 V+
FLAG 2272 -512 V+
FLAG 2272 -240 0
FLAG 2432 -240 0
FLAG 2128 -608 V+
FLAG 1376 -528 0
FLAG 1472 -528 0
SYMBOL voltage 336 -144 R0
WINDOW 123 0 0 Left 2
WINDOW 39 0 0 Left 2
SYMATTR InstName V1
SYMATTR Value 9
SYMBOL cap 400 -160 R0
SYMATTR InstName C1
SYMATTR Value 220µ
SYMBOL Robertugo\\555_all 960 -176 R0
SYMATTR InstName U1
SYMBOL res 1216 -240 R0
SYMATTR InstName R1
SYMATTR Value 10k
SYMBOL cap 1152 -32 R0
SYMATTR InstName C2
SYMATTR Value 10µ
SYMBOL cap 1040 -32 R0
SYMATTR InstName C3
SYMATTR Value 100n
SYMBOL cap 1440 -448 R90
WINDOW 0 0 32 VBottom 2
WINDOW 3 32 32 VTop 2
SYMATTR InstName C4
SYMATTR Value 100n
SYMBOL cap 1456 -400 R0
SYMATTR InstName C5
SYMATTR Value 47n
SYMBOL res 1600 -448 R90
WINDOW 0 0 56 VBottom 2
WINDOW 3 32 56 VTop 2
SYMATTR InstName R5
SYMATTR Value 10k
SYMBOL res 1744 -448 R90
WINDOW 0 0 56 VBottom 2
WINDOW 3 32 56 VTop 2
SYMATTR InstName R6
SYMATTR Value 10k
SYMBOL res 1888 -448 R90
WINDOW 0 0 56 VBottom 2
WINDOW 3 32 56 VTop 2
SYMATTR InstName R7
SYMATTR Value 10k
SYMBOL res 2016 -448 R90
WINDOW 0 0 56 VBottom 2
WINDOW 3 32 56 VTop 2
SYMATTR InstName R8
SYMATTR Value 1Meg
SYMBOL cap 1600 -400 R0
SYMATTR InstName C6
SYMATTR Value 47n
SYMBOL cap 1744 -400 R0
SYMATTR InstName C7
SYMATTR Value 47n
SYMBOL cap 2000 -352 R90
WINDOW 0 0 32 VBottom 2
WINDOW 3 32 32 VTop 2
SYMATTR InstName C8
SYMATTR Value 10n
SYMBOL npn 1968 -288 R0
SYMATTR InstName Q1
SYMATTR Value BC547B
SYMBOL res 2016 -576 R0
SYMATTR InstName R9
SYMATTR Value 100k
SYMBOL npn 2208 -480 R0
SYMATTR InstName Q2
SYMATTR Value BC547B
SYMBOL res 2256 -336 R0
SYMATTR InstName R11
SYMATTR Value 1k
SYMBOL cap 2384 -368 R90
WINDOW 0 0 32 VBottom 2
WINDOW 3 32 32 VTop 2
SYMATTR InstName C9
SYMATTR Value 1µ
SYMBOL pot 2416 -304 R0
SYMATTR InstName U2
SYMATTR Value R=47k
SYMATTR SpiceModel pot_log
SYMBOL res 2112 -592 R0
SYMATTR InstName R12
SYMATTR Value 100k
SYMBOL cap 1360 -592 R0
SYMATTR InstName C10
SYMATTR Value 100µ
SYMBOL cap 1328 -624 R90
WINDOW 0 0 32 VBottom 2
WINDOW 3 32 32 VTop 2
SYMATTR InstName C11
SYMATTR Value 100µ
SYMBOL res 1456 -624 R0
SYMATTR InstName R2
SYMATTR Value 1k
TEXT 416 -496 Left 2 !.tran 0 2 1
TEXT 416 -528 Left 2 !;ac dec 10000 10 10000
TEXT 1504 -176 Left 2 !;.step param W 0 1 0.2
