Version 4
SHEET 1 2792 1076
WIRE 304 -160 224 -160
WIRE 352 -160 304 -160
WIRE 400 -160 352 -160
WIRE 512 -160 512 -240
WIRE 512 -160 480 -160
WIRE 608 -160 512 -160
WIRE 352 -144 352 -160
WIRE 304 -128 304 -160
WIRE 512 -128 512 -160
WIRE 608 -128 608 -160
WIRE 304 -48 304 -64
WIRE 352 -48 352 -64
WIRE 608 -48 608 -64
WIRE 1520 0 1488 0
WIRE 1616 0 1600 0
WIRE 1760 0 1616 0
WIRE 1120 16 1088 16
WIRE 1216 16 1184 16
WIRE 1360 16 1216 16
WIRE 912 48 720 48
WIRE 560 64 384 64
WIRE 1616 96 1616 0
WIRE 1648 96 1616 96
WIRE 1216 112 1216 16
WIRE 1248 112 1216 112
WIRE 1760 112 1760 0
WIRE 1760 112 1712 112
WIRE 1808 112 1760 112
WIRE 1904 112 1872 112
WIRE 720 128 720 48
WIRE 784 128 720 128
WIRE 1360 128 1360 16
WIRE 1360 128 1312 128
WIRE 1392 128 1360 128
WIRE 1488 128 1488 0
WIRE 1488 128 1456 128
WIRE 1520 128 1488 128
WIRE 1616 128 1584 128
WIRE 1648 128 1616 128
WIRE 2224 128 2176 128
WIRE 2368 128 2304 128
WIRE 384 144 384 64
WIRE 432 144 384 144
WIRE 912 144 912 48
WIRE 912 144 848 144
WIRE 992 144 912 144
WIRE 1088 144 1088 16
WIRE 1088 144 1072 144
WIRE 1104 144 1088 144
WIRE 1216 144 1184 144
WIRE 1248 144 1216 144
WIRE 1616 144 1616 128
WIRE 560 160 560 64
WIRE 560 160 496 160
WIRE 688 160 560 160
WIRE 784 160 688 160
WIRE 224 176 144 176
WIRE 272 176 224 176
WIRE 368 176 336 176
WIRE 432 176 368 176
WIRE 1904 176 1904 112
WIRE 1216 192 1216 144
WIRE 224 208 224 176
WIRE 368 208 368 176
WIRE 1968 208 1936 208
WIRE 2064 208 2032 208
WIRE 2176 208 2176 128
WIRE 2176 208 2144 208
WIRE 2240 208 2176 208
WIRE 144 224 144 176
WIRE 2368 224 2368 128
WIRE 2368 224 2304 224
WIRE 2416 224 2368 224
WIRE 2576 224 2560 224
WIRE 2240 240 2224 240
WIRE 1616 256 1616 224
WIRE 1904 256 1904 240
WIRE 2576 256 2576 224
WIRE 928 320 736 320
WIRE 736 400 736 320
WIRE 800 400 736 400
WIRE 928 416 928 320
WIRE 928 416 864 416
WIRE 960 416 928 416
WIRE 1056 416 1024 416
WIRE 1088 416 1056 416
WIRE 1216 416 1168 416
WIRE 688 432 688 160
WIRE 800 432 688 432
WIRE 1056 448 1056 416
WIRE 800 528 752 528
WIRE 928 528 928 416
WIRE 928 528 880 528
WIRE 752 608 752 528
WIRE 800 608 752 608
WIRE 928 608 880 608
WIRE 752 704 752 608
WIRE 800 704 752 704
WIRE 928 720 928 608
WIRE 928 720 864 720
WIRE 960 720 928 720
WIRE 1056 720 1024 720
WIRE 1088 720 1056 720
WIRE 1232 720 1168 720
WIRE 800 736 720 736
WIRE 1056 752 1056 720
FLAG 144 304 0
FLAG 512 -48 0
FLAG 352 -48 0
FLAG 608 -48 0
FLAG 304 -48 0
FLAG 512 -240 V+
FLAG 224 -160 Vref
FLAG 224 288 0
FLAG 368 288 Vref
FLAG 464 128 V+
FLAG 464 192 0
FLAG 816 112 V+
FLAG 816 176 0
FLAG 832 384 V+
FLAG 832 448 0
FLAG 1056 528 0
FLAG 832 688 V+
FLAG 832 752 0
FLAG 1056 832 0
FLAG 720 736 Vref
FLAG 2272 192 V+
FLAG 2272 256 0
FLAG 2224 240 Vref
FLAG 1280 96 V+
FLAG 1280 160 0
FLAG 1216 256 0
FLAG 1680 80 V+
FLAG 1680 144 0
FLAG 1616 256 Vref
FLAG 1904 336 0
FLAG 2576 336 0
SYMBOL voltage 144 208 R0
WINDOW 0 -64 13 Left 2
WINDOW 3 -201 84 Left 2
WINDOW 123 -95 116 Left 2
WINDOW 39 0 0 Left 2
SYMATTR InstName V1
SYMATTR Value SINE(0 1 1000)
SYMATTR Value2 AC 1
SYMBOL voltage 512 -144 R0
WINDOW 123 0 0 Left 2
WINDOW 39 0 0 Left 2
SYMATTR InstName V2
SYMATTR Value 9
SYMBOL cap 592 -128 R0
SYMATTR InstName C1
SYMATTR Value 220µ
SYMBOL res 496 -176 R90
WINDOW 0 0 56 VBottom 2
WINDOW 3 32 56 VTop 2
SYMATTR InstName R1
SYMATTR Value 10k
SYMBOL res 368 -48 R180
WINDOW 0 -40 76 Left 2
WINDOW 3 -42 46 Left 2
SYMATTR InstName R2
SYMATTR Value 10k
SYMBOL cap 288 -128 R0
WINDOW 0 -35 5 Left 2
WINDOW 3 -59 53 Left 2
SYMATTR InstName C2
SYMATTR Value 100µ
SYMBOL res 240 304 R180
WINDOW 0 -40 76 Left 2
WINDOW 3 -72 43 Left 2
SYMATTR InstName R3
SYMATTR Value 1Meg
SYMBOL cap 336 160 R90
WINDOW 0 0 32 VBottom 2
WINDOW 3 32 32 VTop 2
SYMATTR InstName C3
SYMATTR Value 100n
SYMBOL res 384 304 R180
WINDOW 0 -40 76 Left 2
WINDOW 3 -72 43 Left 2
SYMATTR InstName R4
SYMATTR Value 1Meg
SYMBOL EXTRA\\AudioOpamp\\TI\\TL072_TI 464 160 R0
SYMATTR InstName U1
SYMBOL EXTRA\\AudioOpamp\\TI\\TL072_TI 816 144 R0
SYMATTR InstName U2
SYMBOL EXTRA\\AudioOpamp\\TI\\TL072_TI 832 416 R0
SYMATTR InstName U3
SYMBOL cap 1024 400 R90
WINDOW 0 0 32 VBottom 2
WINDOW 3 32 32 VTop 2
SYMATTR InstName C5
SYMATTR Value 10µ
SYMBOL res 1072 544 R180
WINDOW 0 -40 76 Left 2
WINDOW 3 -42 43 Left 2
SYMATTR InstName R7
SYMATTR Value 10k
SYMBOL res 1184 400 R90
WINDOW 0 0 56 VBottom 2
WINDOW 3 32 56 VTop 2
SYMATTR InstName R8
SYMATTR Value 2.2k
SYMBOL EXTRA\\AudioOpamp\\TI\\TL072_TI 832 720 R0
SYMATTR InstName U4
SYMBOL cap 1024 704 R90
WINDOW 0 0 32 VBottom 2
WINDOW 3 32 32 VTop 2
SYMATTR InstName C6
SYMATTR Value 10µ
SYMBOL res 1072 848 R180
WINDOW 0 -40 76 Left 2
WINDOW 3 -42 43 Left 2
SYMATTR InstName R9
SYMATTR Value 10k
SYMBOL res 1184 704 R90
WINDOW 0 0 56 VBottom 2
WINDOW 3 32 56 VTop 2
SYMATTR InstName R10
SYMATTR Value 1k
SYMBOL res 896 512 R90
WINDOW 0 0 56 VBottom 2
WINDOW 3 32 56 VTop 2
SYMATTR InstName R11
SYMATTR Value 10k
SYMBOL res 784 624 R270
WINDOW 0 32 56 VTop 2
WINDOW 3 0 56 VBottom 2
SYMATTR InstName R12
SYMATTR Value 10k
SYMBOL pot 1888 176 R0
SYMATTR InstName U5
SYMATTR Value R=100k
SYMATTR Value2 W=0.5
SYMBOL cap 2032 192 R90
WINDOW 0 0 32 VBottom 2
WINDOW 3 32 32 VTop 2
SYMATTR InstName C7
SYMATTR Value 1µ
SYMBOL EXTRA\\AudioOpamp\\TI\\TL072_TI 2272 224 R0
SYMATTR InstName U6
SYMBOL res 2160 192 R90
WINDOW 0 0 56 VBottom 2
WINDOW 3 32 56 VTop 2
SYMATTR InstName R13
SYMATTR Value 22k
SYMBOL res 2320 112 R90
WINDOW 0 0 56 VBottom 2
WINDOW 3 -24 0 VTop 2
SYMATTR InstName R14
SYMATTR Value 100k
SYMBOL res 2512 208 R90
WINDOW 0 0 56 VBottom 2
WINDOW 3 45 58 VTop 2
SYMATTR InstName R15
SYMATTR Value 6.8
SYMBOL cap 2560 208 R90
WINDOW 0 0 32 VBottom 2
WINDOW 3 32 32 VTop 2
SYMATTR InstName C8
SYMATTR Value 220µ
SYMBOL res 1088 128 R90
WINDOW 0 0 56 VBottom 2
WINDOW 3 32 56 VTop 2
SYMATTR InstName R23
SYMATTR Value 10k
SYMBOL res 1200 128 R90
WINDOW 0 0 56 VBottom 2
WINDOW 3 32 56 VTop 2
SYMATTR InstName R24
SYMATTR Value 10k
SYMBOL EXTRA\\AudioOpamp\\TI\\TL072_TI 1280 128 R0
SYMATTR InstName U9
SYMBOL cap 1200 192 R0
SYMATTR InstName C18
SYMATTR Value 2.2n
SYMBOL cap 1184 0 R90
WINDOW 0 0 32 VBottom 2
WINDOW 3 32 32 VTop 2
SYMATTR InstName C19
SYMATTR Value 10n
SYMBOL EXTRA\\AudioOpamp\\TI\\TL072_TI 1680 112 R0
SYMATTR InstName U10
SYMBOL cap 1872 96 R90
WINDOW 0 0 32 VBottom 2
WINDOW 3 32 32 VTop 2
SYMATTR InstName C4
SYMATTR Value 1µ
SYMBOL cap 1456 112 R90
WINDOW 0 0 32 VBottom 2
WINDOW 3 32 32 VTop 2
SYMATTR InstName C20
SYMATTR Value 22n
SYMBOL cap 1584 112 R90
WINDOW 0 0 32 VBottom 2
WINDOW 3 32 32 VTop 2
SYMATTR InstName C21
SYMATTR Value 4.7n
SYMBOL res 1600 128 R0
SYMATTR InstName R26
SYMATTR Value 1Meg
SYMBOL res 1616 -16 R90
WINDOW 0 0 56 VBottom 2
WINDOW 3 32 56 VTop 2
SYMATTR InstName R25
SYMATTR Value 470k
SYMBOL res 1888 240 R0
SYMATTR InstName R5
SYMATTR Value 2.2k
SYMBOL res 2560 240 R0
SYMATTR InstName R6
SYMATTR Value 10k
TEXT 680 -248 Left 2 !;tran 0 30m 10m
TEXT 680 -208 Left 2 !.ac dec 500 10 10000
TEXT 680 -168 Left 2 !;.step param W 0 1 0.2
TEXT 680 -128 Left 2 !;.step param C list 1u, 4.7u, 10u
