Version 4
SHEET 1 4084 868
WIRE 784 -144 672 -144
WIRE 144 -112 144 -128
WIRE 144 -112 32 -112
WIRE 672 -112 672 -144
WIRE 784 -112 784 -144
WIRE 32 -80 32 -112
WIRE 144 -48 144 -112
WIRE 32 -16 32 -48
WIRE 672 16 672 -32
WIRE 704 16 672 16
WIRE 816 16 784 16
WIRE 672 112 672 16
WIRE 704 112 672 112
WIRE 816 128 816 16
WIRE 816 128 768 128
WIRE 864 128 816 128
WIRE 976 128 928 128
WIRE 1152 128 976 128
WIRE 224 144 112 144
WIRE 272 144 224 144
WIRE 368 144 336 144
WIRE 464 144 448 144
WIRE 496 144 464 144
WIRE 608 144 608 96
WIRE 608 144 560 144
WIRE 704 144 608 144
WIRE 1152 160 1152 128
WIRE 224 176 224 144
WIRE 976 176 976 128
WIRE 112 192 112 144
WIRE 608 192 608 144
WIRE 1296 192 1184 192
WIRE 464 256 464 144
WIRE 544 256 528 256
WIRE 544 288 544 256
WIRE 976 288 976 256
WIRE 464 320 464 256
WIRE 544 384 544 368
WIRE 544 384 512 384
WIRE 624 384 544 384
WIRE 896 384 704 384
WIRE 976 384 976 352
WIRE 976 384 896 384
WIRE 896 400 896 384
WIRE 976 400 976 384
WIRE 272 448 192 448
WIRE 304 448 272 448
WIRE 416 448 304 448
WIRE 464 448 464 416
WIRE 464 448 416 448
WIRE 304 464 304 448
WIRE 416 464 416 448
WIRE 144 512 144 480
WIRE 176 512 144 512
WIRE 272 512 272 448
WIRE 272 512 256 512
WIRE 592 528 576 528
WIRE 544 624 544 560
FLAG 112 272 0
FLAG 144 32 0
FLAG 32 -16 0
FLAG 144 -128 V+
FLAG 224 256 0
FLAG 608 16 V+
FLAG 736 96 V+
FLAG 736 160 0
FLAG 608 272 0
FLAG 784 -48 0
FLAG 1152 224 0
FLAG 976 464 0
FLAG 896 480 0
FLAG 544 624 0
FLAG 304 528 0
FLAG 144 384 V+
FLAG 416 544 0
SYMBOL voltage 112 176 R0
WINDOW 0 -80 19 Left 2
WINDOW 3 -241 66 Left 2
WINDOW 123 -112 100 Left 2
WINDOW 39 0 0 Left 2
SYMATTR InstName V1
SYMATTR Value SINE(0 1 250 0 50)
SYMATTR Value2 AC 1
SYMBOL voltage 144 -64 R0
WINDOW 123 0 0 Left 2
WINDOW 39 0 0 Left 2
SYMATTR InstName V2
SYMATTR Value 9
SYMBOL cap 16 -80 R0
SYMATTR InstName C9
SYMATTR Value 220
SYMBOL pot 1136 160 R0
SYMATTR InstName U2
SYMATTR Value R=10k
SYMATTR Value2 W=0.5
SYMBOL EXTRA\\AudioOpamp\\TI\\TL072_TI 736 128 R0
SYMATTR InstName U1
SYMBOL res 208 160 R0
SYMATTR InstName R1
SYMATTR Value 2.2Meg
SYMBOL cap 336 128 R90
WINDOW 0 0 32 VBottom 2
WINDOW 3 32 32 VTop 2
SYMATTR InstName C1
SYMATTR Value 100n
SYMBOL res 464 128 R90
WINDOW 0 0 56 VBottom 2
WINDOW 3 32 56 VTop 2
SYMATTR InstName R2
SYMATTR Value 68k
SYMBOL cap 560 128 R90
WINDOW 0 0 32 VBottom 2
WINDOW 3 32 32 VTop 2
SYMATTR InstName C2
SYMATTR Value 100n
SYMBOL res 592 0 R0
SYMATTR InstName R3
SYMATTR Value 200k
SYMBOL res 592 176 R0
SYMATTR InstName R4
SYMATTR Value 200k
SYMBOL res 800 0 R90
WINDOW 0 0 56 VBottom 2
WINDOW 3 32 56 VTop 2
SYMATTR InstName R5
SYMATTR Value 200k
SYMBOL res 656 -128 R0
SYMATTR InstName R6
SYMATTR Value 10k
SYMBOL cap 768 -112 R0
SYMATTR InstName C3
SYMATTR Value 4.7
SYMBOL cap 928 112 R90
WINDOW 0 0 32 VBottom 2
WINDOW 3 32 32 VTop 2
SYMATTR InstName C4
SYMATTR Value 4.7
SYMBOL res 960 160 R0
SYMATTR InstName R7
SYMATTR Value 1.5k
SYMBOL diode 960 288 R0
SYMATTR InstName D1
SYMATTR Value 1N914
SYMBOL cap 960 400 R0
SYMATTR InstName C5
SYMATTR Value 4.7
SYMBOL res 880 384 R0
SYMATTR InstName R8
SYMATTR Value 100k
SYMBOL res 720 368 R90
WINDOW 0 0 56 VBottom 2
WINDOW 3 32 56 VTop 2
SYMATTR InstName R9
SYMATTR Value 470k
SYMBOL njf 512 320 M0
SYMATTR InstName J1
SYMATTR Value BF245A
SYMBOL res 528 272 R0
SYMATTR InstName R10
SYMATTR Value 470k
SYMBOL cap 528 240 R90
WINDOW 0 0 32 VBottom 2
WINDOW 3 32 32 VTop 2
SYMATTR InstName C6
SYMATTR Value 2.2n
SYMBOL pot 528 496 R0
SYMATTR InstName U3
SYMATTR Value R=10k
SYMATTR Value2 W=0.5
SYMBOL cap 288 464 R0
SYMATTR InstName C7
SYMATTR Value 4.7
SYMBOL njf 192 384 M0
SYMATTR InstName J2
SYMATTR Value BF245A
SYMBOL res 272 496 R90
WINDOW 0 0 56 VBottom 2
WINDOW 3 32 56 VTop 2
SYMATTR InstName R11
SYMATTR Value 2.4k
SYMBOL res 400 448 R0
SYMATTR InstName R12
SYMATTR Value 5k
TEXT -168 144 Left 2 !;ac dec 10000 20 10k
TEXT -168 192 Left 2 !.tran 0 30ms 0 1u
TEXT 96 80 Left 2 !;.step param W list 0.05, 0.25, 0.5, 0.75, 0.95
