Version 4
SHEET 1 2260 992
WIRE 704 128 672 128
WIRE 800 128 768 128
WIRE 1296 208 1232 208
WIRE 1440 208 1360 208
WIRE 1456 208 1440 208
WIRE 1552 208 1536 208
WIRE 672 224 672 128
WIRE 704 224 672 224
WIRE 800 224 800 128
WIRE 800 224 784 224
WIRE 320 320 240 320
WIRE 368 320 320 320
WIRE 480 320 432 320
WIRE 544 320 480 320
WIRE 672 320 672 224
WIRE 672 320 624 320
WIRE 688 320 672 320
WIRE 800 336 800 224
WIRE 800 336 752 336
WIRE 960 336 800 336
WIRE 1088 336 1040 336
WIRE 1136 336 1088 336
WIRE 1232 336 1232 208
WIRE 1232 336 1216 336
WIRE 1248 336 1232 336
WIRE 1328 336 1312 336
WIRE 1344 336 1328 336
WIRE 1440 336 1440 208
WIRE 1440 336 1424 336
WIRE 1472 336 1440 336
WIRE 1552 336 1552 208
WIRE 1552 336 1536 336
WIRE 320 352 320 320
WIRE 688 352 672 352
WIRE 240 368 240 320
WIRE 1088 368 1088 336
WIRE 1328 384 1328 336
WIRE 480 400 480 320
WIRE 448 432 400 432
WIRE 672 432 672 352
WIRE 1024 432 672 432
WIRE 480 512 480 464
WIRE 608 512 480 512
WIRE 800 512 800 336
WIRE 800 512 688 512
WIRE 1328 512 1328 464
WIRE 1408 512 1328 512
WIRE 1552 512 1552 336
WIRE 1552 512 1488 512
WIRE 96 608 16 608
WIRE 192 608 96 608
WIRE 256 608 192 608
WIRE 1328 608 1328 512
WIRE 1424 608 1328 608
WIRE 1552 608 1552 512
WIRE 1552 608 1488 608
WIRE 16 624 16 608
WIRE 192 624 192 608
WIRE 400 640 400 432
WIRE 480 640 400 640
WIRE 576 656 544 656
WIRE 608 656 576 656
WIRE 784 656 752 656
WIRE 896 656 848 656
WIRE 1024 656 1024 432
WIRE 1024 656 896 656
WIRE 480 672 400 672
WIRE 1024 672 1024 656
WIRE 96 704 96 608
WIRE 816 704 816 688
WIRE 896 704 896 656
WIRE 896 704 816 704
WIRE 992 704 896 704
WIRE 1120 704 1056 704
WIRE 192 720 192 704
WIRE 272 720 192 720
WIRE 320 720 272 720
WIRE 896 720 896 704
WIRE 1120 720 1120 704
WIRE 1328 720 1328 608
WIRE 1424 720 1328 720
WIRE 192 736 192 720
WIRE 272 736 272 720
WIRE 816 736 816 704
WIRE 1552 736 1552 608
WIRE 1552 736 1488 736
WIRE 1728 736 1552 736
WIRE 1424 752 1376 752
WIRE 400 784 400 672
WIRE 464 784 400 784
WIRE 576 784 576 656
WIRE 576 784 544 784
WIRE 400 816 400 784
FLAG 240 448 0
FLAG 96 784 0
FLAG 192 816 0
FLAG 16 688 0
FLAG 272 800 0
FLAG 256 608 V+
FLAG 320 720 Vref
FLAG 320 432 0
FLAG 720 304 V+
FLAG 720 368 0
FLAG 512 688 V+
FLAG 512 624 0
FLAG 400 896 Vref
FLAG 816 800 Vref
FLAG 896 800 Vref
FLAG 1120 800 Vref
FLAG 1088 448 0
FLAG 1456 704 V+
FLAG 1456 768 0
FLAG 1376 752 Vref
SYMBOL voltage 240 352 R0
WINDOW 0 -83 7 Left 2
WINDOW 3 -240 46 Left 2
WINDOW 123 -110 82 Left 2
WINDOW 39 0 0 Left 2
SYMATTR InstName V1
SYMATTR Value SINE(0 1 1000)
SYMATTR Value2 AC 1
SYMBOL voltage 96 688 R0
WINDOW 123 0 0 Left 2
WINDOW 39 0 0 Left 2
SYMATTR InstName V2
SYMATTR Value 9
SYMBOL res 176 608 R0
SYMATTR InstName R1
SYMATTR Value 10k
SYMBOL res 176 720 R0
SYMATTR InstName R2
SYMATTR Value 10k
SYMBOL cap 256 736 R0
SYMATTR InstName C1
SYMATTR Value 100µ
SYMBOL cap 0 624 R0
SYMATTR InstName C2
SYMATTR Value 100µ
SYMBOL EXTRA\\AudioOpamp\\TI\\TL072_TI 720 336 R0
SYMATTR InstName U1
SYMBOL res 304 336 R0
SYMATTR InstName R3
SYMATTR Value 2Meg
SYMBOL cap 432 304 R90
WINDOW 0 0 32 VBottom 2
WINDOW 3 32 32 VTop 2
SYMATTR InstName C3
SYMATTR Value 220n
SYMBOL res 640 304 R90
WINDOW 0 0 56 VBottom 2
WINDOW 3 32 56 VTop 2
SYMATTR InstName R4
SYMATTR Value 75k
SYMBOL res 800 208 R90
WINDOW 0 0 56 VBottom 2
WINDOW 3 32 56 VTop 2
SYMATTR InstName R6
SYMATTR Value 75k
SYMBOL cap 768 112 R90
WINDOW 0 0 32 VBottom 2
WINDOW 3 32 32 VTop 2
SYMATTR InstName C4
SYMATTR Value 47p
SYMBOL pot 496 464 R180
SYMATTR InstName U2
SYMATTR Value R=100k
SYMATTR Value2 W=0.5
SYMBOL res 704 496 R90
WINDOW 0 0 56 VBottom 2
WINDOW 3 32 56 VTop 2
SYMATTR InstName R5
SYMATTR Value 75k
SYMBOL EXTRA\\AudioOpamp\\TI\\TL072_TI 512 656 M180
SYMATTR InstName U3
SYMBOL res 384 800 R0
SYMATTR InstName R7
SYMATTR Value 10k
SYMBOL res 560 768 R90
WINDOW 0 0 56 VBottom 2
WINDOW 3 32 56 VTop 2
SYMATTR InstName R8
SYMATTR Value 4.7k
SYMBOL cap 672 640 R90
WINDOW 0 0 32 VBottom 2
WINDOW 3 32 32 VTop 2
SYMATTR InstName C5
SYMATTR Value 15n
SYMBOL res 768 640 R90
WINDOW 0 0 56 VBottom 2
WINDOW 3 32 56 VTop 2
SYMATTR InstName R9
SYMATTR Value 2.2k
SYMBOL pot 784 640 M90
SYMATTR InstName U4
SYMATTR Value R=100k
SYMATTR Value2 W={W}
SYMBOL cap 832 800 R180
WINDOW 0 24 56 Left 2
WINDOW 3 24 8 Left 2
SYMATTR InstName C6
SYMATTR Value 15n
SYMBOL res 880 704 R0
SYMATTR InstName R10
SYMATTR Value 1Meg
SYMBOL res 1104 704 R0
SYMATTR InstName R11
SYMATTR Value 2.2k
SYMBOL pot 1056 720 M270
SYMATTR InstName U5
SYMATTR Value R=100k
SYMATTR Value2 W={W}
SYMBOL res 1056 320 R90
WINDOW 0 0 56 VBottom 2
WINDOW 3 32 56 VTop 2
SYMATTR InstName R12
SYMATTR Value 1k
SYMBOL res 1104 464 R180
WINDOW 0 36 76 Left 2
WINDOW 3 36 40 Left 2
SYMATTR InstName R13
SYMATTR Value 1k
SYMBOL res 1232 320 R90
WINDOW 0 0 56 VBottom 2
WINDOW 3 32 56 VTop 2
SYMATTR InstName R14
SYMATTR Value 8.2k
SYMBOL cap 1312 320 R90
WINDOW 0 0 32 VBottom 2
WINDOW 3 32 32 VTop 2
SYMATTR InstName C7
SYMATTR Value 47n
SYMBOL res 1440 320 R90
WINDOW 0 0 56 VBottom 2
WINDOW 3 32 56 VTop 2
SYMATTR InstName R15
SYMATTR Value 100k
SYMBOL cap 1536 352 M270
WINDOW 0 32 32 VTop 2
WINDOW 3 0 32 VBottom 2
SYMATTR InstName C8
SYMATTR Value 2.2n
SYMBOL res 1552 192 R90
WINDOW 0 0 56 VBottom 2
WINDOW 3 32 56 VTop 2
SYMATTR InstName R16
SYMATTR Value 10k
SYMBOL cap 1360 192 R90
WINDOW 0 0 32 VBottom 2
WINDOW 3 32 32 VTop 2
SYMATTR InstName C9
SYMATTR Value 68n
SYMBOL res 1312 368 R0
SYMATTR InstName R17
SYMATTR Value 47k
SYMBOL res 1504 496 R90
WINDOW 0 0 56 VBottom 2
WINDOW 3 32 56 VTop 2
SYMATTR InstName R18
SYMATTR Value 1Meg
SYMBOL cap 1488 592 R90
WINDOW 0 0 32 VBottom 2
WINDOW 3 32 32 VTop 2
SYMATTR InstName C10
SYMATTR Value 47p
SYMBOL EXTRA\\AudioOpamp\\TI\\TL072_TI 1456 736 R0
SYMATTR InstName U6
TEXT 896 112 Left 2 !.ac dec 1000 10 20000
TEXT 896 160 Left 2 !;tran 30m
TEXT 896 216 Left 2 !.step param W 0 1 0.2
