Version 4
SHEET 1 3188 1764
WIRE -48 -960 -128 -960
WIRE -48 -944 -48 -960
WIRE -128 -912 -128 -960
WIRE 768 -832 768 -848
WIRE 352 -816 352 -848
WIRE 624 -720 512 -720
WIRE 656 -720 624 -720
WIRE 768 -720 768 -752
WIRE 768 -720 736 -720
WIRE 800 -720 768 -720
WIRE 912 -720 864 -720
WIRE 624 -704 624 -720
WIRE 352 -688 352 -736
WIRE 352 -688 272 -688
WIRE 272 -672 272 -688
WIRE 512 -656 512 -720
WIRE 624 -624 624 -640
WIRE 656 -624 624 -624
WIRE 624 -608 624 -624
WIRE 352 -576 352 -688
WIRE 656 -576 656 -624
WIRE 512 -528 512 -576
WIRE 112 -480 0 -480
WIRE 160 -480 112 -480
WIRE 256 -480 224 -480
WIRE 352 -480 352 -496
WIRE 352 -480 256 -480
WIRE 448 -480 352 -480
WIRE 0 -464 0 -480
WIRE 112 -464 112 -480
WIRE 256 -464 256 -480
WIRE 352 -464 352 -480
WIRE 768 -464 768 -720
WIRE 512 -416 512 -432
WIRE 608 -416 512 -416
WIRE 704 -416 608 -416
WIRE 608 -400 608 -416
WIRE 256 -384 256 -400
WIRE 512 -368 512 -416
WIRE 768 -352 768 -368
WIRE 864 -352 768 -352
WIRE 768 -336 768 -352
WIRE 864 -336 864 -352
WIRE 512 -256 512 -288
WIRE 864 -256 864 -272
FLAG 0 -384 0
FLAG -128 -832 0
FLAG -48 -880 0
FLAG -128 -960 V+
FLAG 112 -384 0
FLAG 256 -384 0
FLAG 352 -384 0
FLAG 608 -256 0
FLAG 512 -256 0
FLAG 768 -256 0
FLAG 864 -256 0
FLAG 272 -608 0
FLAG 624 -544 0
FLAG 352 -848 V+
FLAG 768 -848 V+
SYMBOL voltage 0 -480 R0
WINDOW 0 -80 16 Left 2
WINDOW 3 -219 63 Left 2
WINDOW 123 -108 110 Left 2
WINDOW 39 0 0 Left 2
SYMATTR InstName V1
SYMATTR Value SINE(0 0.2 1000)
SYMATTR Value2 AC 1
SYMBOL cap -64 -944 R0
SYMATTR InstName C12
SYMATTR Value 220µ
SYMBOL voltage -128 -928 R0
WINDOW 123 0 0 Left 2
WINDOW 39 0 0 Left 2
SYMATTR InstName V2
SYMATTR Value 9
SYMBOL res 96 -480 R0
SYMATTR InstName R6
SYMATTR Value 2.2Meg
SYMBOL cap 224 -496 R90
WINDOW 0 0 32 VBottom 2
WINDOW 3 32 32 VTop 2
SYMATTR InstName C3
SYMATTR Value 10n
SYMBOL cap 240 -464 R0
SYMATTR InstName C4
SYMATTR Value 470p
SYMBOL res 336 -480 R0
SYMATTR InstName R7
SYMATTR Value 680k
SYMBOL res 336 -592 R0
SYMATTR InstName R8
SYMATTR Value 820k
SYMBOL res 336 -832 R0
SYMATTR InstName R9
SYMATTR Value 180k
SYMBOL cap 288 -608 R180
WINDOW 0 24 56 Left 2
WINDOW 3 24 8 Left 2
SYMATTR InstName C7
SYMATTR Value 22µ
SYMBOL pnp 448 -432 M180
SYMATTR InstName Q2
SYMATTR Value 2N3906
SYMBOL res 496 -384 R0
SYMATTR InstName R10
SYMATTR Value 39k
SYMBOL res 592 -416 R0
SYMATTR InstName R11
SYMATTR Value 220
SYMBOL cap 592 -320 R0
SYMATTR InstName C8
SYMATTR Value 1n
SYMBOL npn 704 -464 R0
WINDOW 0 89 3 Left 2
WINDOW 3 88 31 Left 2
SYMATTR InstName Q3
SYMATTR Value 2N3904
SYMBOL res 752 -352 R0
SYMATTR InstName R12
SYMATTR Value 39k
SYMBOL cap 848 -336 R0
SYMATTR InstName C9
SYMATTR Value 100n
SYMBOL res 528 -560 R180
WINDOW 0 36 76 Left 2
WINDOW 3 36 40 Left 2
SYMATTR InstName R13
SYMATTR Value 220
SYMBOL pot 608 -544 M180
SYMATTR InstName U1
SYMATTR Value2 W={W}
SYMATTR SpiceModel pot_exp
SYMBOL cap 608 -704 R0
SYMATTR InstName C10
SYMATTR Value 22µ
SYMBOL res 752 -736 R90
WINDOW 0 0 56 VBottom 2
WINDOW 3 32 56 VTop 2
SYMATTR InstName R1
SYMATTR Value 47k
SYMBOL res 784 -736 R180
WINDOW 0 36 76 Left 2
WINDOW 3 36 40 Left 2
SYMATTR InstName R2
SYMATTR Value 39k
SYMBOL cap 864 -736 R90
WINDOW 0 0 32 VBottom 2
WINDOW 3 32 32 VTop 2
SYMATTR InstName C1
SYMATTR Value 10n
TEXT 56 -952 Left 2 !;tran 0 20m 10m
TEXT 56 -912 Left 2 !.ac dec 500 20 10000
TEXT 56 -880 Left 2 !.step param W 0 1 0.2
