Version 4
SHEET 1 4436 680
WIRE 1184 -1184 1168 -1184
WIRE 1264 -1184 1248 -1184
WIRE 1072 -1120 1040 -1120
WIRE 1168 -1120 1168 -1184
WIRE 1168 -1120 1152 -1120
WIRE 1184 -1120 1168 -1120
WIRE 1264 -1120 1264 -1184
WIRE 1264 -1120 1248 -1120
WIRE 1312 -1120 1264 -1120
WIRE 1344 -1120 1312 -1120
WIRE 1456 -1120 1424 -1120
WIRE 256 -1104 256 -1152
WIRE 256 -1104 176 -1104
WIRE 336 -1104 256 -1104
WIRE 736 -1104 608 -1104
WIRE 912 -1104 800 -1104
WIRE 256 -1088 256 -1104
WIRE 336 -1088 336 -1104
WIRE 176 -1072 176 -1104
WIRE 1312 -1024 1312 -1120
WIRE 1344 -1024 1312 -1024
WIRE 1456 -1024 1456 -1120
WIRE 1456 -1024 1408 -1024
WIRE 608 -1008 608 -1104
WIRE 736 -1008 608 -1008
WIRE 912 -1008 912 -1104
WIRE 912 -1008 800 -1008
WIRE 1216 -1008 1216 -1088
WIRE 336 -992 336 -1008
WIRE 416 -992 336 -992
WIRE 432 -992 416 -992
WIRE 336 -976 336 -992
WIRE 416 -976 416 -992
WIRE 608 -944 608 -1008
WIRE 912 -944 912 -1008
WIRE 768 -912 768 -976
WIRE 1040 -880 1040 -1120
WIRE 1072 -880 1040 -880
WIRE 1216 -880 1216 -944
WIRE 1216 -880 1152 -880
WIRE 1312 -880 1216 -880
WIRE 1360 -880 1312 -880
WIRE 1456 -880 1456 -1024
WIRE 1456 -880 1424 -880
WIRE 1216 -864 1216 -880
WIRE 768 -800 768 -848
WIRE 800 -800 768 -800
WIRE 912 -800 912 -864
WIRE 912 -800 864 -800
WIRE 1312 -768 1312 -880
WIRE 1344 -768 1312 -768
WIRE 1456 -768 1456 -880
WIRE 1456 -768 1424 -768
WIRE 1728 -768 1600 -768
WIRE 1216 -752 1216 -784
WIRE 272 -704 208 -704
WIRE 368 -704 352 -704
WIRE 400 -704 368 -704
WIRE 512 -704 480 -704
WIRE 768 -704 768 -800
WIRE 800 -704 768 -704
WIRE 912 -704 912 -800
WIRE 912 -704 880 -704
WIRE 1600 -688 1600 -768
WIRE 1632 -688 1600 -688
WIRE 1312 -672 1312 -768
WIRE 1344 -672 1312 -672
WIRE 1728 -672 1728 -768
WIRE 1728 -672 1696 -672
WIRE 1776 -672 1728 -672
WIRE 1872 -672 1840 -672
WIRE 1904 -672 1872 -672
WIRE 2032 -672 1984 -672
WIRE 1456 -656 1456 -768
WIRE 1456 -656 1408 -656
WIRE 1488 -656 1456 -656
WIRE 1632 -656 1568 -656
WIRE 1344 -640 1328 -640
WIRE 1872 -640 1872 -672
WIRE 1328 -624 1328 -640
WIRE 368 -608 368 -704
WIRE 400 -608 368 -608
WIRE 1216 -608 1216 -688
WIRE 512 -592 512 -704
WIRE 512 -592 464 -592
WIRE 528 -592 512 -592
WIRE 608 -592 608 -864
WIRE 608 -592 592 -592
WIRE 656 -592 608 -592
WIRE 768 -592 768 -704
WIRE 768 -592 736 -592
WIRE 800 -592 768 -592
WIRE -160 -576 -192 -576
WIRE -48 -576 -80 -576
WIRE 80 -576 32 -576
WIRE 128 -576 80 -576
WIRE 224 -576 192 -576
WIRE 368 -576 304 -576
WIRE 400 -576 368 -576
WIRE 912 -576 912 -704
WIRE 912 -576 864 -576
WIRE 944 -576 912 -576
WIRE 1040 -576 1040 -880
WIRE 1040 -576 1008 -576
WIRE 1072 -576 1040 -576
WIRE 1168 -576 1152 -576
WIRE 1184 -576 1168 -576
WIRE 368 -560 368 -576
WIRE 800 -560 784 -560
WIRE 80 -544 80 -576
WIRE 784 -544 784 -560
WIRE -192 -528 -192 -576
WIRE 1168 -512 1168 -576
WIRE 1184 -512 1168 -512
WIRE 1248 -512 1248 -576
WIRE 1312 -512 1248 -512
WIRE 1456 -512 1456 -656
WIRE 1456 -512 1392 -512
WIRE 368 -464 368 -480
FLAG -192 -448 0
FLAG 176 -992 0
FLAG 256 -1024 0
FLAG 336 -896 0
FLAG 416 -912 0
FLAG 256 -1152 V+
FLAG 432 -992 Vref
FLAG 368 -464 Vref
FLAG 432 -560 0
FLAG 432 -624 V+
FLAG 832 -544 0
FLAG 832 -608 V+
FLAG 784 -544 Vref
FLAG 1376 -624 0
FLAG 1376 -688 V+
FLAG 1328 -624 Vref
FLAG 1664 -640 0
FLAG 1664 -704 V+
FLAG 1872 -560 0
FLAG 208 -704 Vref
FLAG 80 -480 0
SYMBOL voltage -192 -544 R0
WINDOW 123 24 124 Left 2
WINDOW 39 0 0 Left 2
SYMATTR Value2 AC 1
SYMATTR InstName V1
SYMATTR Value SINE(0 0.2 250)
SYMBOL voltage 176 -1088 R0
WINDOW 123 0 0 Left 2
WINDOW 39 0 0 Left 2
SYMATTR InstName V2
SYMATTR Value 9
SYMBOL cap 240 -1088 R0
SYMATTR InstName C31
SYMATTR Value 220µ
SYMBOL res 320 -1104 R0
SYMATTR InstName R35
SYMATTR Value 10k
SYMBOL res 320 -992 R0
SYMATTR InstName R36
SYMATTR Value 10k
SYMBOL cap 400 -976 R0
SYMATTR InstName C32
SYMATTR Value 220µ
SYMBOL cap 192 -592 R90
WINDOW 0 0 32 VBottom 2
WINDOW 3 32 32 VTop 2
SYMATTR InstName Cin
SYMATTR Value 100n
SYMBOL res 320 -592 R90
WINDOW 0 0 56 VBottom 2
WINDOW 3 32 56 VTop 2
SYMATTR InstName R1
SYMATTR Value 10k
SYMBOL res 352 -576 R0
SYMATTR InstName R2
SYMATTR Value 1Meg
SYMBOL res 496 -720 R90
WINDOW 0 0 56 VBottom 2
WINDOW 3 32 56 VTop 2
SYMATTR InstName R3
SYMATTR Value 10k
SYMBOL res 368 -720 R90
WINDOW 0 0 56 VBottom 2
WINDOW 3 32 56 VTop 2
SYMATTR InstName R4
SYMATTR Value 4.7k
SYMBOL res 752 -608 R90
WINDOW 0 0 56 VBottom 2
WINDOW 3 32 56 VTop 2
SYMATTR InstName R21
SYMATTR Value 100k
SYMBOL cap 1008 -592 R90
WINDOW 0 0 32 VBottom 2
WINDOW 3 32 32 VTop 2
SYMATTR InstName C22
SYMATTR Value 2.2µ
SYMBOL cap 864 -816 R90
WINDOW 0 0 32 VBottom 2
WINDOW 3 32 32 VTop 2
SYMATTR InstName C19
SYMATTR Value 120p
SYMBOL res 896 -720 R90
WINDOW 0 0 56 VBottom 2
WINDOW 3 32 56 VTop 2
SYMATTR InstName R23
SYMATTR Value 100k
SYMBOL cap 752 -912 R0
SYMATTR InstName C20
SYMATTR Value 22n
SYMBOL pot 800 -1024 R90
WINDOW 0 85 13 Right 2
WINDOW 3 94 88 Right 2
WINDOW 123 95 55 Right 2
SYMATTR InstName U12
SYMATTR Value R=100k
SYMATTR Value2 W=0.5
SYMBOL res 592 -960 R0
SYMATTR InstName R22
SYMATTR Value 3.3k
SYMBOL cap 800 -1120 R90
WINDOW 0 0 32 VBottom 2
WINDOW 3 32 32 VTop 2
SYMATTR InstName C21
SYMATTR Value 22n
SYMBOL res 896 -960 R0
SYMATTR InstName R24
SYMATTR Value 3.3k
SYMBOL res 1168 -592 R90
WINDOW 0 0 56 VBottom 2
WINDOW 3 32 56 VTop 2
SYMATTR InstName R25
SYMATTR Value 3.3k
SYMBOL pot 1184 -560 R270
WINDOW 0 74 -20 Right 2
WINDOW 3 114 9 Right 2
WINDOW 123 102 54 Right 2
SYMATTR InstName U13
SYMATTR Value R=100k
SYMATTR Value2 W=0.5
SYMBOL cap 1248 -528 R90
WINDOW 0 0 32 VBottom 2
WINDOW 3 32 32 VTop 2
SYMATTR InstName C23
SYMATTR Value 100n
SYMBOL res 1408 -528 R90
WINDOW 0 0 56 VBottom 2
WINDOW 3 32 56 VTop 2
SYMATTR InstName R31
SYMATTR Value 3.3k
SYMBOL cap 1200 -752 R0
SYMATTR InstName C24
SYMATTR Value 10n
SYMBOL res 1200 -880 R0
SYMATTR InstName R29
SYMATTR Value 100k
SYMBOL res 1584 -672 R90
WINDOW 0 0 56 VBottom 2
WINDOW 3 32 56 VTop 2
SYMATTR InstName R32
SYMATTR Value 1k
SYMBOL res 1440 -784 R90
WINDOW 0 0 56 VBottom 2
WINDOW 3 32 56 VTop 2
SYMATTR InstName R30
SYMATTR Value 1Meg
SYMBOL cap 1424 -896 R90
WINDOW 0 0 32 VBottom 2
WINDOW 3 32 32 VTop 2
SYMATTR InstName C27
SYMATTR Value 220p
SYMBOL res 1168 -896 R90
WINDOW 0 0 56 VBottom 2
WINDOW 3 32 56 VTop 2
SYMATTR InstName R26
SYMATTR Value 1Meg
SYMBOL cap 1200 -1008 R0
SYMATTR InstName C25
SYMATTR Value 1n
SYMBOL pot 1248 -1136 R90
WINDOW 0 82 86 Right 2
WINDOW 3 117 58 Right 2
WINDOW 123 106 11 Right 2
SYMATTR InstName U15
SYMATTR Value R=100k
SYMATTR Value2 W=0.5
SYMBOL res 1168 -1136 R90
WINDOW 0 0 56 VBottom 2
WINDOW 3 32 56 VTop 2
SYMATTR InstName R27
SYMATTR Value 3.3k
SYMBOL cap 1248 -1200 R90
WINDOW 0 0 32 VBottom 2
WINDOW 3 32 32 VTop 2
SYMATTR InstName C26
SYMATTR Value 4.7n
SYMBOL res 1440 -1136 R90
WINDOW 0 0 56 VBottom 2
WINDOW 3 32 56 VTop 2
SYMATTR InstName R28
SYMATTR Value 3.3k
SYMBOL cap 1408 -1040 R90
WINDOW 0 0 32 VBottom 2
WINDOW 3 32 32 VTop 2
SYMATTR InstName C28
SYMATTR Value 22n
SYMBOL cap 1840 -688 R90
WINDOW 0 0 32 VBottom 2
WINDOW 3 32 32 VTop 2
SYMATTR InstName C29
SYMATTR Value 2.2µ
SYMBOL res 1856 -656 R0
SYMATTR InstName R33
SYMATTR Value 100k
SYMBOL res 2000 -688 R90
WINDOW 0 0 56 VBottom 2
WINDOW 3 32 56 VTop 2
SYMATTR InstName R34
SYMATTR Value 1k
SYMBOL EXTRA\\AudioOpamp\\TI\\TL072_TI 432 -592 R0
SYMATTR InstName U1
SYMBOL EXTRA\\AudioOpamp\\TI\\TL072_TI 832 -576 R0
SYMATTR InstName U14
SYMBOL EXTRA\\AudioOpamp\\TI\\TL072_TI 1664 -672 R0
SYMATTR InstName U17
SYMBOL EXTRA\\AudioOpamp\\TI\\TL072_TI 1376 -656 R0
SYMATTR InstName U11
SYMBOL cap 592 -608 R90
WINDOW 0 0 32 VBottom 2
WINDOW 3 32 32 VTop 2
SYMATTR InstName C1
SYMATTR Value 2.2µ
SYMBOL ind -64 -592 R90
WINDOW 0 5 56 VBottom 2
WINDOW 3 32 56 VTop 2
SYMATTR InstName L1
SYMATTR Value 10
SYMBOL res 48 -592 R90
WINDOW 0 0 56 VBottom 2
WINDOW 3 32 56 VTop 2
SYMATTR InstName R5
SYMATTR Value 15k
SYMBOL cap 64 -544 R0
SYMATTR InstName C2
SYMATTR Value 200p
TEXT 424 -408 Left 2 !;tran 15m
TEXT 416 -368 Left 2 !.ac dec 500 10 10000
TEXT 416 -336 Left 2 !;.step param W 0 1 0.2
