Version 4
SHEET 1 2412 680
WIRE 944 -288 944 -304
WIRE 944 -288 880 -288
WIRE 144 -256 64 -256
WIRE 224 -256 144 -256
WIRE 368 -256 224 -256
WIRE 144 -240 144 -256
WIRE 224 -240 224 -256
WIRE 880 -240 880 -288
WIRE 912 -240 880 -240
WIRE 64 -208 64 -256
WIRE 480 -208 480 -240
WIRE 944 -176 944 -192
WIRE 224 -128 224 -160
WIRE 288 -128 224 -128
WIRE 368 -128 288 -128
WIRE 224 -112 224 -128
WIRE 288 -112 288 -128
WIRE 944 -80 944 -112
WIRE 480 -64 480 -128
WIRE 512 -64 480 -64
WIRE 608 -64 592 -64
WIRE 1008 -48 976 -48
WIRE 1104 -48 1088 -48
WIRE 480 0 480 -64
WIRE 512 0 480 0
WIRE 608 0 608 -64
WIRE 608 0 576 0
WIRE 1408 0 1408 -32
WIRE 944 16 944 0
WIRE 976 16 976 -48
WIRE 976 16 944 16
WIRE 1008 16 976 16
WIRE 1104 16 1104 -48
WIRE 1104 16 1072 16
WIRE 848 48 848 32
WIRE 1104 64 1104 16
WIRE 1184 64 1104 64
WIRE 1312 64 1264 64
WIRE 1360 64 1312 64
WIRE 1920 64 1904 64
WIRE 1312 96 1312 64
WIRE 1728 96 1696 96
WIRE 1824 96 1824 64
WIRE 1824 96 1792 96
WIRE 1920 96 1920 64
WIRE 544 112 544 96
WIRE 976 112 976 16
WIRE 1008 112 976 112
WIRE 480 128 480 0
WIRE 512 128 480 128
WIRE 1104 128 1104 64
WIRE 1104 128 1072 128
WIRE 608 144 608 0
WIRE 608 144 576 144
WIRE 704 144 672 144
WIRE 848 144 848 128
WIRE 848 144 784 144
WIRE 1008 144 848 144
WIRE 1824 144 1824 96
WIRE 80 160 48 160
WIRE 176 160 144 160
WIRE 272 160 256 160
WIRE 288 160 272 160
WIRE 400 160 352 160
WIRE 512 160 400 160
WIRE 400 176 400 160
WIRE 1312 176 1312 160
WIRE 1408 176 1408 96
WIRE 1408 176 1312 176
WIRE 1504 176 1472 176
WIRE 1616 176 1584 176
WIRE 1696 176 1696 96
WIRE 1696 176 1616 176
WIRE 1968 192 1856 192
WIRE 2096 192 2096 176
WIRE 272 208 272 160
WIRE 1616 208 1616 176
WIRE 1408 224 1408 176
WIRE 2032 240 2000 240
WIRE 48 256 48 160
WIRE 1696 256 1696 176
WIRE 1712 256 1696 256
WIRE 1824 256 1824 240
WIRE 1824 256 1792 256
WIRE 400 272 400 256
WIRE 464 272 400 272
WIRE 640 272 544 272
WIRE 2096 272 2096 256
WIRE 2144 272 2096 272
WIRE 2256 272 2208 272
WIRE 2352 272 2256 272
WIRE 400 288 400 272
WIRE 1824 288 1824 256
WIRE 2096 288 2096 272
WIRE 2256 288 2256 272
WIRE 640 320 640 272
WIRE 592 352 560 352
WIRE 720 352 688 352
WIRE 560 368 560 352
WIRE 720 368 720 352
FLAG 48 336 0
FLAG 64 -128 0
FLAG 144 -176 0
FLAG 224 -32 0
FLAG 288 -48 0
FLAG 368 -256 V+
FLAG 368 -128 Vref
FLAG 544 176 0
FLAG 544 96 V+
FLAG 400 352 0
FLAG 560 448 V+
FLAG 720 448 0
FLAG 848 32 Vref
FLAG 1040 96 V+
FLAG 1040 160 0
FLAG 2096 176 V+
FLAG 2256 368 0
FLAG 2096 368 0
FLAG 2352 272 out
FLAG 1920 96 0
FLAG 1824 352 0
FLAG 1408 -112 V+
FLAG 1616 272 0
FLAG 1968 288 0
FLAG 944 -304 0
FLAG 480 -304 0
FLAG 272 288 0
FLAG 1408 304 0
SYMBOL voltage 48 240 R0
WINDOW 123 -101 51 Left 2
WINDOW 39 0 0 Left 2
WINDOW 3 34 91 Left 2
SYMATTR Value2 AC 1
SYMATTR Value SINE(0 200m 1000)
SYMATTR InstName V1
SYMBOL voltage 64 -224 R0
WINDOW 123 0 0 Left 2
WINDOW 39 0 0 Left 2
SYMATTR InstName V2
SYMATTR Value 9
SYMBOL cap 128 -240 R0
SYMATTR InstName C1
SYMATTR Value 220µ
SYMBOL res 208 -256 R0
SYMATTR InstName R1
SYMATTR Value 10k
SYMBOL res 208 -128 R0
SYMATTR InstName R2
SYMATTR Value 10k
SYMBOL cap 272 -112 R0
SYMATTR InstName C2
SYMATTR Value 220µ
SYMBOL MyLib\\tlc2272 544 80 R0
WINDOW 3 20 -2 Left 2
SYMATTR InstName U1
SYMBOL cap 144 144 R90
WINDOW 0 0 32 VBottom 2
WINDOW 3 32 32 VTop 2
SYMATTR InstName C3
SYMATTR Value 27n
SYMBOL res 272 144 R90
WINDOW 0 0 56 VBottom 2
WINDOW 3 32 56 VTop 2
SYMATTR InstName R3
SYMATTR Value 10k
SYMBOL res 256 192 R0
WINDOW 0 36 20 Left 2
WINDOW 3 34 48 Left 2
SYMATTR InstName R4
SYMATTR Value 1Meg
SYMBOL cap 352 144 R90
WINDOW 0 0 32 VBottom 2
WINDOW 3 32 32 VTop 2
SYMATTR InstName C4
SYMATTR Value 27n
SYMBOL cap 672 128 R90
WINDOW 0 0 32 VBottom 2
WINDOW 3 32 32 VTop 2
SYMATTR InstName C5
SYMATTR Value 47n
SYMBOL res 800 128 R90
WINDOW 0 0 56 VBottom 2
WINDOW 3 32 56 VTop 2
SYMATTR InstName R5
SYMATTR Value 47k
SYMBOL res 384 160 R0
SYMATTR InstName R6
SYMATTR Value 1Meg
SYMBOL cap 384 288 R0
SYMATTR InstName C6
SYMATTR Value 56n
SYMBOL res 560 256 R90
WINDOW 0 0 56 VBottom 2
WINDOW 3 32 56 VTop 2
SYMATTR InstName R7
SYMATTR Value 1Meg
SYMBOL EXTRA\\Misc\\pot 640 352 R90
SYMATTR InstName U2
SYMATTR Value R=100k
SYMATTR Value2 T=0.5
SYMBOL res 704 352 R0
SYMATTR InstName R8
SYMATTR Value 47k
SYMBOL res 576 464 R180
WINDOW 0 36 76 Left 2
WINDOW 3 36 40 Left 2
SYMATTR InstName R9
SYMATTR Value 22k
SYMBOL cap 512 16 R270
WINDOW 0 32 32 VTop 2
WINDOW 3 0 32 VBottom 2
SYMATTR InstName C7
SYMATTR Value 100p
SYMBOL res 496 -48 R270
WINDOW 0 34 20 VTop 2
WINDOW 3 63 71 VBottom 2
SYMATTR InstName R10
SYMATTR Value 330k
SYMBOL res 464 -224 R0
SYMATTR InstName R11
SYMATTR Value 3.3k
SYMBOL cap 464 -304 R0
SYMATTR InstName C8
SYMATTR Value 47n
SYMBOL res 832 32 R0
SYMATTR InstName R12
SYMATTR Value 100k
SYMBOL MyLib\\tlc2272 1040 64 R0
WINDOW 3 20 -2 Left 2
SYMATTR InstName U3
SYMBOL cap 1008 32 R270
WINDOW 0 32 9 VTop 2
WINDOW 3 62 61 VBottom 2
SYMATTR InstName C9
SYMATTR Value 22p
SYMBOL res 992 -32 R270
WINDOW 0 38 26 VTop 2
WINDOW 3 65 90 VBottom 2
SYMATTR InstName R13
SYMATTR Value 1Meg
SYMBOL res 960 16 R180
WINDOW 0 36 76 Left 2
WINDOW 3 36 40 Left 2
SYMATTR InstName R15
SYMATTR Value 3.3k
SYMBOL cap 928 -176 R0
SYMATTR InstName C10
SYMATTR Value 47n
SYMBOL EXTRA\\Misc\\pot 944 -240 R0
SYMATTR InstName U4
SYMATTR Value R=100k
SYMATTR Value2 T=0.5
SYMBOL EXTRA\\Misc\\pot 1968 240 R180
SYMATTR InstName U6
SYMATTR Value R=100k
SYMATTR Value2 T=0.5
SYMBOL FET\\njf2 2032 192 R0
WINDOW 0 77 29 Left 2
WINDOW 3 76 4 Left 2
SYMATTR InstName J1
SYMATTR Value J201_0.8
SYMBOL res 2080 272 R0
SYMATTR InstName R17
SYMATTR Value 10k
SYMBOL res 2240 272 R0
SYMATTR InstName R18
SYMATTR Value 100k
SYMBOL cap 2144 288 R270
WINDOW 0 32 32 VTop 2
WINDOW 3 0 32 VBottom 2
SYMATTR InstName 100n
SYMATTR Value 470n
SYMBOL EXTRA\\Misc\\pot 1824 192 R180
SYMATTR InstName U5
SYMATTR Value R=100k
SYMATTR Value2 T=0.5
SYMBOL cap 1728 112 R270
WINDOW 0 32 32 VTop 2
WINDOW 3 0 32 VBottom 2
SYMATTR InstName C12
SYMATTR Value 4n
SYMBOL res 1920 48 R90
WINDOW 0 0 56 VBottom 2
WINDOW 3 32 56 VTop 2
SYMATTR InstName R16
SYMATTR Value 22k
SYMBOL res 1808 240 R90
WINDOW 0 0 56 VBottom 2
WINDOW 3 32 56 VTop 2
SYMATTR InstName R19
SYMATTR Value 33k
SYMBOL cap 1808 288 R0
SYMATTR InstName C13
SYMATTR Value 10n
SYMBOL res 1280 48 R90
WINDOW 0 0 56 VBottom 2
WINDOW 3 32 56 VTop 2
SYMATTR InstName R14
SYMATTR Value 470k
SYMBOL njf 1360 0 R0
SYMATTR InstName J2
SYMATTR Value J201_0.8
SYMBOL diode 1328 160 R180
WINDOW 0 24 64 Left 2
WINDOW 3 24 0 Left 2
SYMATTR InstName D1
SYMATTR Value 1N4148
SYMBOL res 1392 -128 R0
SYMATTR InstName R20
SYMATTR Value 1k
SYMBOL res 1392 208 R0
SYMATTR InstName R21
SYMATTR Value 10k
SYMBOL cap 1472 160 R90
WINDOW 0 0 32 VBottom 2
WINDOW 3 32 32 VTop 2
SYMATTR InstName C11
SYMATTR Value 1µ
SYMBOL res 1600 160 R90
WINDOW 0 0 56 VBottom 2
WINDOW 3 32 56 VTop 2
SYMATTR InstName R22
SYMATTR Value 22k
SYMBOL cap 1600 208 R0
SYMATTR InstName C14
SYMATTR Value 4.7n
TEXT 568 -208 Left 2 !.ac dec 1000 20 10000
TEXT 776 224 Left 2 !;.step param W list 0.05, 0.25, 0.5, 0.75, 0.95
TEXT 568 -240 Left 2 !;tran 0 10ms 1u 1u
