Version 4
SHEET 1 2840 1268
WIRE 720 -144 624 -144
WIRE 992 -144 720 -144
WIRE 720 -128 720 -144
WIRE 624 -112 624 -144
WIRE 992 0 992 -144
WIRE 992 112 992 80
WIRE 1152 112 992 112
WIRE 1312 112 1216 112
WIRE 992 144 992 112
WIRE 1312 160 1312 112
WIRE 1440 192 1344 192
WIRE 592 208 544 208
WIRE 720 208 656 208
WIRE 768 208 720 208
WIRE 816 208 768 208
WIRE 944 208 896 208
WIRE 768 240 768 208
WIRE 720 256 720 208
WIRE 992 272 992 240
WIRE 1136 272 992 272
WIRE 544 288 544 208
WIRE 992 304 992 272
WIRE 1136 304 1136 272
WIRE 1136 384 1136 368
WIRE 1104 416 1072 416
WIRE 1072 464 1072 416
WIRE 1136 464 1136 448
WIRE 1136 464 1072 464
WIRE 1136 480 1136 464
FLAG 544 368 0
FLAG 624 -32 0
FLAG 720 -64 0
FLAG 992 384 0
FLAG 1312 224 0
FLAG 1136 480 0
FLAG 768 320 0
SYMBOL voltage 544 272 R0
WINDOW 123 24 124 Left 2
WINDOW 39 0 0 Left 2
SYMATTR Value2 AC 1
SYMATTR InstName V1
SYMATTR Value SINE(0 100m 333)
SYMBOL voltage 624 -128 R0
WINDOW 123 0 0 Left 2
WINDOW 39 0 0 Left 2
SYMATTR InstName V2
SYMATTR Value 9
SYMBOL cap 704 -128 R0
SYMATTR InstName C1
SYMATTR Value 220µ
SYMBOL res 752 224 R0
SYMATTR InstName R3
SYMATTR Value 10Meg
SYMBOL njf 944 144 R0
SYMATTR InstName J1
SYMATTR Value J201_1.3
SYMBOL res 976 288 R0
SYMATTR InstName R4
SYMATTR Value 3.3k
SYMBOL res 976 -16 R0
SYMATTR InstName R5
SYMATTR Value 12k
SYMBOL cap 1216 96 R90
WINDOW 0 0 32 VBottom 2
WINDOW 3 32 32 VTop 2
SYMATTR InstName C2
SYMATTR Value 1µ
SYMBOL pot 1296 160 R0
SYMATTR InstName U1
SYMATTR Value R=50k
SYMATTR Value2 W=1
SYMATTR SpiceModel pot_log
SYMBOL pot 1152 448 R180
SYMATTR InstName U2
SYMATTR Value2 W={W}
SYMATTR SpiceModel pot_log
SYMBOL cap 656 192 R90
WINDOW 0 0 32 VBottom 2
WINDOW 3 32 32 VTop 2
SYMATTR InstName C5
SYMATTR Value 500p
SYMBOL res 912 192 R90
WINDOW 0 0 56 VBottom 2
WINDOW 3 32 56 VTop 2
SYMATTR InstName R1
SYMATTR Value 10k
SYMBOL cap 1152 368 R180
WINDOW 0 24 56 Left 2
WINDOW 3 24 8 Left 2
SYMATTR InstName C3
SYMATTR Value 220n
TEXT 536 64 Left 2 !;tran 0 20m 10m
TEXT 536 32 Left 2 !.ac dec 1000 10 10000
TEXT 536 96 Left 2 !.step param W 0 1 0.2
