Version 4
SHEET 1 2912 680
WIRE 192 -176 112 -176
WIRE 272 -176 192 -176
WIRE 112 -144 112 -176
WIRE 880 -112 880 -128
WIRE 880 -112 784 -112
WIRE 1344 -112 1344 -128
WIRE 1424 -112 1344 -112
WIRE 1488 -112 1424 -112
WIRE 1792 -112 1792 -128
WIRE 1872 -112 1792 -112
WIRE 784 -96 784 -112
WIRE 880 -96 880 -112
WIRE 1344 -96 1344 -112
WIRE 1424 -96 1424 -112
WIRE 1488 -96 1488 -112
WIRE 1792 -96 1792 -112
WIRE 1872 -96 1872 -112
WIRE 1056 -48 1024 -48
WIRE 1152 -48 1120 -48
WIRE 400 16 400 -16
WIRE 432 16 400 16
WIRE 528 16 496 16
WIRE 560 16 528 16
WIRE 672 16 624 16
WIRE 784 16 784 -32
WIRE 880 16 880 -16
WIRE 880 16 784 16
WIRE 1344 16 1344 -16
WIRE 1424 16 1424 -32
WIRE 1424 16 1344 16
WIRE 1488 16 1488 -32
WIRE 1488 16 1424 16
WIRE 1536 16 1488 16
WIRE 1632 16 1616 16
WIRE 1648 16 1632 16
WIRE 1728 16 1712 16
WIRE 1792 16 1792 -16
WIRE 1872 16 1872 -32
WIRE 1872 16 1792 16
WIRE 1904 16 1872 16
WIRE 2048 16 1968 16
WIRE 2160 16 2048 16
WIRE 2320 16 2224 16
WIRE 528 32 528 16
WIRE 2048 32 2048 16
WIRE 400 48 400 16
WIRE 880 48 880 16
WIRE 912 48 880 48
WIRE 992 48 976 48
WIRE 1024 48 1024 -48
WIRE 1024 48 992 48
WIRE 1056 48 1024 48
WIRE 1152 48 1152 -48
WIRE 1152 48 1136 48
WIRE 1168 48 1152 48
WIRE 1344 48 1344 16
WIRE 1488 48 1488 16
WIRE 1792 48 1792 16
WIRE 992 64 992 48
WIRE 672 80 672 16
WIRE 2352 96 2272 96
WIRE 2448 96 2416 96
WIRE 2592 96 2528 96
WIRE 176 112 112 112
WIRE 256 112 176 112
WIRE 352 112 256 112
WIRE 784 112 704 112
WIRE 832 112 784 112
WIRE 1232 112 1232 48
WIRE 1296 112 1232 112
WIRE 1728 112 1728 16
WIRE 1744 112 1728 112
WIRE 784 128 784 112
WIRE 1232 128 1232 112
WIRE 1488 128 1488 112
WIRE 1536 128 1488 128
WIRE 1632 128 1632 16
WIRE 1632 128 1616 128
WIRE 2048 144 2048 112
WIRE 2096 144 2048 144
WIRE 2592 144 2592 96
WIRE 112 160 112 112
WIRE 400 160 400 144
WIRE 496 160 400 160
WIRE 880 160 880 144
WIRE 960 160 880 160
WIRE 1344 160 1344 144
WIRE 1728 160 1728 112
WIRE 1792 160 1792 144
WIRE 1872 160 1792 160
WIRE 400 176 400 160
WIRE 496 176 496 160
WIRE 880 176 880 160
WIRE 1792 176 1792 160
WIRE 2048 176 2048 144
WIRE 2320 176 2320 16
WIRE 2656 176 2624 176
WIRE 2768 176 2656 176
WIRE 960 192 960 160
WIRE 1872 192 1872 160
WIRE 2160 208 2160 144
WIRE 2160 208 2080 208
WIRE 2176 208 2160 208
WIRE 2272 208 2272 96
WIRE 2272 208 2256 208
WIRE 2288 208 2272 208
WIRE 2080 256 2080 208
WIRE 2144 256 2080 256
WIRE 2208 256 2144 256
WIRE 2320 256 2320 240
WIRE 2656 256 2656 176
WIRE 2624 288 2608 288
WIRE 2048 320 2048 240
WIRE 2080 320 2048 320
WIRE 2144 320 2080 320
WIRE 2208 320 2144 320
WIRE 2048 336 2048 320
WIRE 2608 352 2608 288
WIRE 2656 352 2656 320
WIRE 2656 352 2608 352
WIRE 2656 368 2656 352
WIRE 2048 416 2048 400
WIRE 2080 416 2080 368
WIRE 2080 416 2048 416
WIRE 2048 432 2048 416
FLAG 112 -64 0
FLAG 112 240 0
FLAG 272 -176 V+
FLAG 192 -112 0
FLAG 176 176 0
FLAG 256 192 0
FLAG 400 256 0
FLAG 496 240 0
FLAG 400 -96 V+
FLAG 528 112 0
FLAG 672 144 0
FLAG 880 256 0
FLAG 960 256 0
FLAG 784 192 0
FLAG 880 -128 V+
FLAG 992 144 0
FLAG 1232 208 0
FLAG 1344 240 0
FLAG 1344 -128 V+
FLAG 1728 240 0
FLAG 1792 256 0
FLAG 1872 256 0
FLAG 1792 -128 V+
FLAG 2048 432 0
FLAG 2320 256 0
FLAG 2656 432 0
FLAG 2592 208 0
SYMBOL voltage 112 144 R0
WINDOW 0 -79 18 Left 2
WINDOW 3 -228 77 Left 2
WINDOW 123 -108 110 Left 2
WINDOW 39 0 0 Left 2
SYMATTR InstName V1
SYMATTR Value SINE(0 200m 800)
SYMATTR Value2 AC 1
SYMBOL voltage 112 -160 R0
WINDOW 123 0 0 Left 2
WINDOW 39 0 0 Left 2
SYMATTR InstName V2
SYMATTR Value 9
SYMBOL njf 352 48 R0
SYMATTR InstName J1
SYMATTR Value J201
SYMBOL cap 176 -176 R0
SYMATTR InstName C1
SYMATTR Value 100
SYMBOL cap 160 112 R0
SYMATTR InstName C2
SYMATTR Value 10p
SYMBOL res 240 96 R0
SYMATTR InstName R1
SYMATTR Value 220k
SYMBOL res 384 160 R0
SYMATTR InstName R2
SYMATTR Value 910
SYMBOL cap 480 176 R0
SYMATTR InstName C3
SYMATTR Value 1
SYMBOL res 384 -112 R0
SYMATTR InstName R3
SYMATTR Value 16k
SYMBOL cap 496 0 R90
WINDOW 0 0 32 VBottom 2
WINDOW 3 32 32 VTop 2
SYMATTR InstName C4
SYMATTR Value 47n
SYMBOL res 512 16 R0
SYMATTR InstName R4
SYMATTR Value 4.7meg
SYMBOL cap 624 0 R90
WINDOW 0 0 32 VBottom 2
WINDOW 3 32 32 VTop 2
SYMATTR InstName C5
SYMATTR Value 2.2n
SYMBOL pot 656 80 R0
SYMATTR InstName U1
SYMATTR Value R=500k
SYMATTR Value2 W=0.5
SYMBOL cap 768 128 R0
SYMATTR InstName C6
SYMATTR Value 560p
SYMBOL njf 832 48 R0
SYMATTR InstName J2
SYMATTR Value J201
SYMBOL res 864 160 R0
SYMATTR InstName R5
SYMATTR Value 1.5k
SYMBOL cap 944 192 R0
SYMATTR InstName C7
SYMATTR Value 1
SYMBOL res 864 -112 R0
SYMATTR InstName R6
SYMATTR Value 21k
SYMBOL cap 768 -96 R0
SYMATTR InstName C8
SYMATTR Value 560p
SYMBOL cap 976 32 R90
WINDOW 0 0 32 VBottom 2
WINDOW 3 32 32 VTop 2
SYMATTR InstName C9
SYMATTR Value 2.2n
SYMBOL res 976 48 R0
SYMATTR InstName R7
SYMATTR Value 1meg
SYMBOL res 1152 32 R90
WINDOW 0 0 56 VBottom 2
WINDOW 3 32 56 VTop 2
SYMATTR InstName R8
SYMATTR Value 470k
SYMBOL cap 1120 -64 R90
WINDOW 0 0 32 VBottom 2
WINDOW 3 32 32 VTop 2
SYMATTR InstName C10
SYMATTR Value 560p
SYMBOL cap 1232 32 R90
WINDOW 0 0 32 VBottom 2
WINDOW 3 32 32 VTop 2
SYMATTR InstName C11
SYMATTR Value 4.7n
SYMBOL njf 1296 48 R0
SYMATTR InstName J3
SYMATTR Value J201
SYMBOL res 1216 112 R0
SYMATTR InstName R9
SYMATTR Value 68k
SYMBOL res 1328 144 R0
SYMATTR InstName R10
SYMATTR Value 3.3k
SYMBOL res 1328 -112 R0
SYMATTR InstName R11
SYMATTR Value 34k
SYMBOL cap 1408 -96 R0
SYMATTR InstName C12
SYMATTR Value 560p
SYMBOL cap 1472 -96 R0
SYMATTR InstName C13
SYMATTR Value 560p
SYMBOL res 1632 0 R90
WINDOW 0 0 56 VBottom 2
WINDOW 3 32 56 VTop 2
SYMATTR InstName R12
SYMATTR Value 470k
SYMBOL cap 1472 48 R0
SYMATTR InstName C14
SYMATTR Value 560p
SYMBOL res 1632 112 R90
WINDOW 0 0 56 VBottom 2
WINDOW 3 32 56 VTop 2
SYMATTR InstName R13
SYMATTR Value 220k
SYMBOL cap 1712 0 R90
WINDOW 0 0 32 VBottom 2
WINDOW 3 32 32 VTop 2
SYMATTR InstName C15
SYMATTR Value 2.2n
SYMBOL njf 1744 48 R0
SYMATTR InstName J4
SYMATTR Value J201
SYMBOL res 1712 144 R0
WINDOW 0 -46 38 Left 2
WINDOW 3 -30 68 Left 2
SYMATTR InstName R14
SYMATTR Value 470k
SYMBOL res 1776 160 R0
SYMATTR InstName R15
SYMATTR Value 2.2k
SYMBOL cap 1856 192 R0
SYMATTR InstName C16
SYMATTR Value 47
SYMBOL res 1776 -112 R0
SYMATTR InstName R16
SYMATTR Value 26k
SYMBOL cap 1856 -96 R0
SYMATTR InstName C17
SYMATTR Value 560p
SYMBOL cap 1968 0 R90
WINDOW 0 0 32 VBottom 2
WINDOW 3 32 32 VTop 2
SYMATTR InstName C18
SYMATTR Value 10n
SYMBOL res 2032 16 R0
WINDOW 0 -47 37 Left 2
WINDOW 3 -59 66 Left 2
SYMATTR InstName R17
SYMATTR Value 100k
SYMBOL cap 2160 128 R90
WINDOW 0 0 32 VBottom 2
WINDOW 3 32 32 VTop 2
SYMATTR InstName C19
SYMATTR Value 10n
SYMBOL cap 2064 256 R0
SYMATTR InstName C20
SYMATTR Value 10n
SYMBOL cap 2128 256 R0
SYMATTR InstName C21
SYMATTR Value 560p
SYMBOL cap 2192 256 R0
SYMATTR InstName C22
SYMATTR Value 560p
SYMBOL res 2272 192 R90
WINDOW 0 0 56 VBottom 2
WINDOW 3 32 56 VTop 2
SYMATTR InstName R18
SYMATTR Value 100k
SYMBOL cap 2224 0 R90
WINDOW 0 0 32 VBottom 2
WINDOW 3 32 32 VTop 2
SYMATTR InstName C23
SYMATTR Value 250p
SYMBOL cap 2416 80 R90
WINDOW 0 0 32 VBottom 2
WINDOW 3 32 32 VTop 2
SYMATTR InstName C24
SYMATTR Value 33n
SYMBOL res 2544 80 R90
WINDOW 0 0 56 VBottom 2
WINDOW 3 32 56 VTop 2
SYMATTR InstName R19
SYMATTR Value 47k
SYMBOL cap 2640 368 R0
SYMATTR InstName C25
SYMATTR Value 2.2n
SYMBOL pot 2576 144 R0
WINDOW 0 -33 4 Left 2
WINDOW 3 -83 62 Left 2
WINDOW 123 -70 31 Left 2
SYMATTR InstName U7
SYMATTR Value R=1meg
SYMATTR Value2 W=0.5
SYMBOL pot 2032 336 R0
WINDOW 0 -33 4 Left 2
WINDOW 3 -83 62 Left 2
WINDOW 123 -70 31 Left 2
SYMATTR InstName U2
SYMATTR Value R=25k
SYMATTR Value2 W=0.5
SYMBOL pot 2032 176 R0
WINDOW 0 -33 4 Left 2
WINDOW 3 -83 62 Left 2
WINDOW 123 -70 31 Left 2
SYMATTR InstName U3
SYMATTR Value R=1meg
SYMATTR Value2 W=0.5
SYMBOL pot 2336 240 R180
WINDOW 0 -33 4 Left 2
WINDOW 3 -83 62 Left 2
WINDOW 123 -70 31 Left 2
SYMATTR InstName U4
SYMATTR Value R=1meg
SYMATTR Value2 W=0.5
SYMBOL pot 2672 320 R180
WINDOW 0 -33 4 Left 2
WINDOW 3 -83 62 Left 2
WINDOW 123 -70 31 Left 2
SYMATTR InstName U5
SYMATTR Value R=500k
SYMATTR Value2 W=0.5
TEXT 992 -200 Left 2 !;tran 0 12ms 1u 1u
TEXT 984 -160 Left 2 !.ac dec 10000 10 10000
TEXT 2352 8 Left 2 !;.step param W list 0.05, 0.25, 0.5, 0.75, 0.95
