Version 4
SHEET 1 3188 1764
WIRE -48 -960 -128 -960
WIRE -48 -944 -48 -960
WIRE -128 -912 -128 -960
WIRE 256 -720 256 -752
WIRE 416 -704 416 -752
WIRE 496 -672 448 -672
WIRE 640 -672 560 -672
WIRE 112 -576 48 -576
WIRE 256 -576 256 -640
WIRE 256 -576 176 -576
WIRE 304 -576 256 -576
WIRE 416 -576 416 -640
WIRE 416 -576 368 -576
WIRE 416 -528 416 -576
WIRE 48 -480 48 -576
WIRE 48 -480 -64 -480
WIRE 112 -480 48 -480
WIRE 256 -480 256 -576
WIRE 256 -480 176 -480
WIRE 352 -480 256 -480
WIRE -64 -464 -64 -480
WIRE 48 -464 48 -480
WIRE 256 -464 256 -480
WIRE 416 -416 416 -432
WIRE 448 -416 416 -416
WIRE 544 -416 512 -416
WIRE 416 -400 416 -416
WIRE 544 -400 544 -416
WIRE 48 -384 48 -400
FLAG -64 -384 0
FLAG -128 -832 0
FLAG -48 -880 0
FLAG -128 -960 V+
FLAG 48 -384 0
FLAG 256 -384 0
FLAG 416 -320 0
FLAG 544 -320 0
FLAG 256 -752 V+
FLAG 416 -752 V+
SYMBOL voltage -64 -480 R0
WINDOW 0 -80 16 Left 2
WINDOW 3 -219 63 Left 2
WINDOW 123 -108 110 Left 2
WINDOW 39 0 0 Left 2
SYMATTR InstName V1
SYMATTR Value SINE(0 0.2 1000)
SYMATTR Value2 AC 1
SYMBOL cap -64 -944 R0
SYMATTR InstName C12
SYMATTR Value 220µ
SYMBOL voltage -128 -928 R0
WINDOW 123 0 0 Left 2
WINDOW 39 0 0 Left 2
SYMATTR InstName V2
SYMATTR Value 9
SYMBOL pot 400 -704 R0
SYMATTR InstName U1
SYMATTR Value2 W={W}
SYMBOL cap 32 -464 R0
SYMATTR InstName C2
SYMATTR Value 1n
SYMBOL cap 176 -496 R90
WINDOW 0 0 32 VBottom 2
WINDOW 3 32 32 VTop 2
SYMATTR InstName C3
SYMATTR Value 1n
SYMBOL cap 176 -592 R90
WINDOW 0 0 32 VBottom 2
WINDOW 3 32 32 VTop 2
SYMATTR InstName C4
SYMATTR Value 3.3n
SYMBOL res 240 -480 R0
SYMATTR InstName R2
SYMATTR Value 68k
SYMBOL npn 352 -528 R0
WINDOW 0 89 3 Left 2
WINDOW 3 88 31 Left 2
SYMATTR InstName Q1
SYMATTR Value 2N5089
SYMBOL res 272 -736 M0
SYMATTR InstName R3
SYMATTR Value 220k
SYMBOL res 432 -416 M0
SYMATTR InstName R4
SYMATTR Value 8.2k
SYMBOL cap 512 -432 R90
WINDOW 0 0 32 VBottom 2
WINDOW 3 32 32 VTop 2
SYMATTR InstName C5
SYMATTR Value 47µ
SYMBOL res 528 -416 R0
SYMATTR InstName R5
SYMATTR Value 470
SYMBOL cap 368 -592 R90
WINDOW 0 0 32 VBottom 2
WINDOW 3 32 32 VTop 2
SYMATTR InstName C6
SYMATTR Value 47p
SYMBOL cap 560 -688 R90
WINDOW 0 0 32 VBottom 2
WINDOW 3 32 32 VTop 2
SYMATTR InstName C7
SYMATTR Value 10n
TEXT 56 -952 Left 2 !.tran 0 20m 10m
TEXT 56 -912 Left 2 !;ac dec 500 20 10000
TEXT 56 -880 Left 2 !.step param W 0 1 0.2
