Version 4
SHEET 1 2840 1268
WIRE 720 -144 720 -192
WIRE 720 -144 624 -144
WIRE 720 -128 720 -144
WIRE 624 -112 624 -144
WIRE 1568 -32 1552 -32
WIRE 1680 -32 1680 -64
WIRE 1680 -32 1632 -32
WIRE 1728 -32 1680 -32
WIRE 1904 -32 1792 -32
WIRE 1680 0 1680 -32
WIRE 1904 16 1904 -32
WIRE 1968 48 1936 48
WIRE 1456 64 1424 64
WIRE 1552 64 1552 -32
WIRE 1552 64 1520 64
WIRE 1600 64 1552 64
WIRE 1632 64 1600 64
WIRE 1600 128 1600 64
WIRE 1680 128 1680 96
WIRE 720 208 624 208
WIRE 1072 208 720 208
WIRE 1200 208 1136 208
WIRE 1536 208 1200 208
WIRE 1536 224 1536 208
WIRE 720 240 720 208
WIRE 624 288 624 208
WIRE 1200 320 1200 208
WIRE 1216 320 1200 320
WIRE 1296 320 1280 320
WIRE 1424 320 1424 64
WIRE 1440 320 1424 320
WIRE 1536 320 1536 288
WIRE 1536 320 1520 320
WIRE 1200 352 1200 320
WIRE 1536 352 1536 320
WIRE 1296 384 1296 320
WIRE 1296 384 1232 384
WIRE 1312 384 1296 384
WIRE 1424 384 1424 320
WIRE 1424 384 1392 384
WIRE 1504 384 1424 384
WIRE 1200 448 1200 416
WIRE 1216 448 1200 448
WIRE 1296 448 1296 384
WIRE 1296 448 1280 448
WIRE 1424 448 1424 384
WIRE 1440 448 1424 448
WIRE 1536 448 1536 416
WIRE 1536 448 1520 448
WIRE 1200 496 1200 448
WIRE 1536 512 1536 448
FLAG 624 368 0
FLAG 624 -32 0
FLAG 720 -64 0
FLAG 720 -192 V+
FLAG 720 320 0
FLAG 1200 576 0
FLAG 1536 576 0
FLAG 1680 208 0
FLAG 1680 -144 V+
FLAG 1904 80 0
FLAG 1600 208 0
SYMBOL voltage 624 272 R0
WINDOW 123 24 124 Left 2
WINDOW 39 0 0 Left 2
SYMATTR Value2 AC 1
SYMATTR InstName V1
SYMATTR Value SINE(0 1 1000)
SYMBOL voltage 624 -128 R0
WINDOW 123 0 0 Left 2
WINDOW 39 0 0 Left 2
SYMATTR InstName V2
SYMATTR Value 9
SYMBOL cap 704 -128 R0
SYMATTR InstName C1
SYMATTR Value 220µ
SYMBOL res 704 224 R0
SYMATTR InstName R2
SYMATTR Value 2.2Meg
SYMBOL cap 1136 192 R90
WINDOW 0 0 32 VBottom 2
WINDOW 3 32 32 VTop 2
SYMATTR InstName C3
SYMATTR Value 10µ
SYMBOL pot 1184 352 R0
SYMATTR InstName U1
SYMATTR Value R=100k
SYMATTR Value2 W=0.5
SYMATTR SpiceModel pot_exp
SYMBOL cap 1280 304 R90
WINDOW 0 0 32 VBottom 2
WINDOW 3 32 32 VTop 2
SYMATTR InstName C4
SYMATTR Value 33n
SYMBOL cap 1280 432 R90
WINDOW 0 0 32 VBottom 2
WINDOW 3 32 32 VTop 2
SYMATTR InstName C5
SYMATTR Value 330n
SYMBOL res 1184 480 R0
SYMATTR InstName R3
SYMATTR Value 1k
SYMBOL res 1408 368 R90
WINDOW 0 0 56 VBottom 2
WINDOW 3 32 56 VTop 2
SYMATTR InstName R4
SYMATTR Value 10k
SYMBOL pot 1552 352 M0
SYMATTR InstName U2
SYMATTR Value R=100k
SYMATTR Value2 W={W}
SYMATTR SpiceModel pot_exp
SYMBOL res 1536 304 R90
WINDOW 0 0 56 VBottom 2
WINDOW 3 32 56 VTop 2
SYMATTR InstName R5
SYMATTR Value 22k
SYMBOL res 1536 432 R90
WINDOW 0 0 56 VBottom 2
WINDOW 3 32 56 VTop 2
SYMATTR InstName R6
SYMATTR Value 1k
SYMBOL cap 1520 512 R0
SYMATTR InstName C6
SYMATTR Value 100n
SYMBOL cap 1520 224 R0
SYMATTR InstName C7
SYMATTR Value 10n
SYMBOL cap 1520 48 R90
WINDOW 0 0 32 VBottom 2
WINDOW 3 32 32 VTop 2
SYMATTR InstName C8
SYMATTR Value 10µ
SYMBOL njf 1632 0 R0
SYMATTR InstName J1
SYMATTR Value J201_0.8
SYMBOL cap 1632 -48 R90
WINDOW 0 0 32 VBottom 2
WINDOW 3 32 32 VTop 2
SYMATTR InstName C9
SYMATTR Value 100p
SYMBOL res 1664 112 R0
SYMATTR InstName R7
SYMATTR Value 1.5k
SYMBOL res 1664 -160 R0
SYMATTR InstName R8
SYMATTR Value 16k
SYMBOL cap 1792 -48 R90
WINDOW 0 0 32 VBottom 2
WINDOW 3 32 32 VTop 2
SYMATTR InstName C10
SYMATTR Value 10µ
SYMBOL pot 1888 16 R0
SYMATTR InstName U3
SYMATTR Value R=100k
SYMATTR Value2 W=0.5
SYMATTR SpiceModel pot_log
SYMBOL res 1584 112 R0
SYMATTR InstName R9
SYMATTR Value 1Meg
TEXT 536 64 Left 2 !;tran 0 20m 10m
TEXT 536 32 Left 2 !.ac dec 1000 30 10000
TEXT 536 96 Left 2 !.step param W 0 1 0.2
