Version 4
SHEET 1 2660 680
WIRE 1152 -464 1152 -512
WIRE 1152 -464 1040 -464
WIRE 1264 -464 1152 -464
WIRE 1040 -448 1040 -464
WIRE 1264 -448 1264 -464
WIRE 1152 -432 1152 -464
WIRE 1264 -352 1264 -368
WIRE 1360 -352 1264 -352
WIRE 1424 -352 1360 -352
WIRE 1264 -336 1264 -352
WIRE 1360 -336 1360 -352
WIRE 784 -304 768 -304
WIRE 800 -304 784 -304
WIRE 880 -304 864 -304
WIRE 1632 -304 1600 -304
WIRE 1728 -304 1696 -304
WIRE 1824 -304 1792 -304
WIRE 1968 -304 1888 -304
WIRE 784 -256 784 -304
WIRE 832 -256 832 -272
WIRE 832 -256 784 -256
WIRE 1040 -240 1024 -240
WIRE 1136 -240 1120 -240
WIRE 1760 -240 1760 -272
WIRE 576 -208 544 -208
WIRE 688 -208 688 -304
WIRE 688 -208 640 -208
WIRE 752 -208 688 -208
WIRE 880 -208 880 -304
WIRE 880 -208 816 -208
WIRE 1024 -208 1024 -240
WIRE 1136 -192 1136 -240
WIRE 544 -176 544 -208
WIRE 1760 -144 1760 -160
WIRE 1872 -144 1760 -144
WIRE 1760 -128 1760 -144
WIRE 1968 -128 1968 -304
WIRE 1968 -128 1936 -128
WIRE 2032 -128 1968 -128
WIRE 688 -112 688 -208
WIRE 752 -112 688 -112
WIRE 880 -112 880 -208
WIRE 880 -112 816 -112
WIRE 1488 -112 1472 -112
WIRE 1600 -112 1600 -304
WIRE 1600 -112 1568 -112
WIRE 1872 -112 1840 -112
WIRE 1024 -80 1024 -144
WIRE 1040 -80 1024 -80
WIRE 1136 -80 1120 -80
WIRE 1152 -80 1136 -80
WIRE 1264 -80 1232 -80
WIRE 2288 -80 2288 -112
WIRE 2032 -64 2032 -128
WIRE 1760 -32 1760 -48
WIRE 1760 -32 1712 -32
WIRE 1808 -32 1760 -32
WIRE 2096 -32 2064 -32
WIRE 2176 -32 2160 -32
WIRE 2224 -32 2176 -32
WIRE 576 -16 576 -48
WIRE 688 -16 688 -112
WIRE 752 -16 688 -16
WIRE 880 -16 880 -112
WIRE 880 -16 816 -16
WIRE 1024 -16 1024 -80
WIRE 1472 -16 1472 -112
WIRE 1504 -16 1472 -16
WIRE 1600 -16 1600 -112
WIRE 1600 -16 1568 -16
WIRE 1712 -16 1712 -32
WIRE 1808 -16 1808 -32
WIRE 2176 -16 2176 -32
WIRE 240 32 112 32
WIRE 272 32 240 32
WIRE 352 32 336 32
WIRE 464 32 432 32
WIRE 512 32 464 32
WIRE 2032 32 2032 0
WIRE 2288 32 2288 16
WIRE 2336 32 2288 32
WIRE 2432 32 2400 32
WIRE 2528 32 2512 32
WIRE 2544 32 2528 32
WIRE 2288 48 2288 32
WIRE 2528 48 2528 32
WIRE 240 64 240 32
WIRE 464 64 464 32
WIRE 1136 64 1136 -80
WIRE 1152 64 1136 64
WIRE 1760 64 1760 -32
WIRE 688 80 688 -16
WIRE 736 80 688 80
WIRE 1264 80 1264 -80
WIRE 1264 80 1216 80
WIRE 1296 80 1264 80
WIRE 1376 80 1360 80
WIRE 1472 80 1472 -16
WIRE 1472 80 1456 80
WIRE 1488 80 1472 80
WIRE 880 96 880 -16
WIRE 880 96 800 96
WIRE 912 96 880 96
WIRE 1024 96 1024 64
WIRE 1024 96 992 96
WIRE 1152 96 1024 96
WIRE 1600 96 1600 -16
WIRE 1600 96 1552 96
WIRE 1616 96 1600 96
WIRE 1712 96 1712 48
WIRE 1712 96 1696 96
WIRE 1728 96 1712 96
WIRE 1808 96 1808 48
WIRE 1808 96 1792 96
WIRE 1824 96 1808 96
WIRE 1968 96 1968 -128
WIRE 1968 96 1904 96
WIRE 2176 96 2176 64
WIRE 112 112 112 32
WIRE 576 112 576 80
WIRE 608 112 576 112
WIRE 704 112 672 112
WIRE 736 112 704 112
WIRE 1024 112 1024 96
WIRE 1488 112 1456 112
WIRE 576 144 576 112
WIRE 704 144 704 112
FLAG 112 192 0
FLAG 1360 -272 0
FLAG 1264 -256 0
FLAG 1040 -384 0
FLAG 1152 -352 0
FLAG 1152 -512 V+
FLAG 1424 -352 Vref
FLAG 240 144 0
FLAG 576 224 0
FLAG 464 144 Vref
FLAG 704 224 Vref
FLAG 576 -48 V+
FLAG 768 128 0
FLAG 768 64 V+
FLAG 1024 176 0
FLAG 1184 48 V+
FLAG 1184 112 0
FLAG 1136 -192 0
FLAG 1520 64 V+
FLAG 1520 128 0
FLAG 1456 112 Vref
FLAG 1840 -112 Vref
FLAG 1904 -160 V+
FLAG 1904 -96 0
FLAG 2032 32 Vref
FLAG 2528 128 0
FLAG 2288 128 0
FLAG 2288 -112 V+
FLAG 2176 96 Vref
FLAG 544 -96 0
SYMBOL voltage 112 96 R0
WINDOW 123 24 124 Left 2
WINDOW 39 0 0 Left 2
SYMATTR Value2 AC 1
SYMATTR InstName V1
SYMATTR Value SINE(0 1 1000)
SYMBOL res 224 48 R0
SYMATTR InstName R1
SYMATTR Value 1Meg
SYMBOL cap 336 16 R90
WINDOW 0 0 32 VBottom 2
WINDOW 3 32 32 VTop 2
SYMATTR InstName C1
SYMATTR Value 22n
SYMBOL res 448 16 R90
WINDOW 0 0 56 VBottom 2
WINDOW 3 32 56 VTop 2
SYMATTR InstName R2
SYMATTR Value 1k
SYMBOL res 448 48 R0
SYMATTR InstName R3
SYMATTR Value 470k
SYMBOL npn 512 -16 R0
SYMATTR InstName Q2
SYMATTR Value 2N5088
SYMBOL res 560 128 R0
SYMATTR InstName R4
SYMATTR Value 10k
SYMBOL cap 672 96 R90
WINDOW 0 0 32 VBottom 2
WINDOW 3 32 32 VTop 2
SYMATTR InstName C2
SYMATTR Value 1µ
SYMBOL res 688 128 R0
SYMATTR InstName R5
SYMATTR Value 10k
SYMBOL EXTRA\\AudioOpamp\\TI\\TL072_TI 768 96 R0
SYMATTR InstName U1
SYMBOL cap 816 -32 R90
WINDOW 0 0 32 VBottom 2
WINDOW 3 32 32 VTop 2
SYMATTR InstName C3
SYMATTR Value 51p
SYMBOL diode 816 -128 R90
WINDOW 0 0 32 VBottom 2
WINDOW 3 32 32 VTop 2
SYMATTR InstName D1
SYMATTR Value 1N4148
SYMBOL diode 752 -192 R270
WINDOW 0 32 32 VTop 2
WINDOW 3 0 32 VBottom 2
SYMATTR InstName D2
SYMATTR Value 1N4148
SYMBOL res 784 -320 R90
WINDOW 0 0 56 VBottom 2
WINDOW 3 32 56 VTop 2
SYMATTR InstName R6
SYMATTR Value 10k
SYMBOL pot 864 -320 R90
WINDOW 3 -93 23 Left 2
WINDOW 123 -71 57 Left 2
SYMATTR Value R=1Meg
SYMATTR Value2 W=0.5
SYMATTR InstName U2
SYMBOL res 1008 80 R90
WINDOW 0 0 56 VBottom 2
WINDOW 3 32 56 VTop 2
SYMATTR InstName R7
SYMATTR Value 1k
SYMBOL cap 640 -224 R90
WINDOW 0 0 32 VBottom 2
WINDOW 3 32 32 VTop 2
SYMATTR InstName C4
SYMATTR Value 47n
SYMBOL res 560 -80 R180
WINDOW 0 36 76 Left 2
WINDOW 3 36 40 Left 2
SYMATTR InstName R8
SYMATTR Value 4.7k
SYMBOL cap 1008 112 R0
SYMATTR InstName C5
SYMATTR Value 220n
SYMBOL res 1008 -32 R0
SYMATTR InstName R9
SYMATTR Value 1k
SYMBOL EXTRA\\AudioOpamp\\TI\\TL072_TI 1184 80 R0
SYMATTR InstName U3
SYMBOL res 1136 -96 R90
WINDOW 0 0 56 VBottom 2
WINDOW 3 32 56 VTop 2
SYMATTR InstName R10
SYMATTR Value 19k
SYMBOL res 1248 -96 R90
WINDOW 0 0 56 VBottom 2
WINDOW 3 32 56 VTop 2
SYMATTR InstName R11
SYMATTR Value 1k
SYMBOL cap 1040 -144 R180
WINDOW 0 24 56 Left 2
WINDOW 3 24 8 Left 2
SYMATTR InstName C6
SYMATTR Value 220n
SYMBOL res 1024 -224 R270
WINDOW 0 32 56 VTop 2
WINDOW 3 0 56 VBottom 2
SYMATTR InstName R12
SYMATTR Value 220
SYMBOL cap 1360 64 R90
WINDOW 0 0 32 VBottom 2
WINDOW 3 32 32 VTop 2
SYMATTR InstName C7
SYMATTR Value 100n
SYMBOL res 1472 64 R90
WINDOW 0 0 56 VBottom 2
WINDOW 3 32 56 VTop 2
SYMATTR InstName R13
SYMATTR Value 10k
SYMBOL EXTRA\\AudioOpamp\\TI\\TL072_TI 1520 96 R0
SYMATTR InstName U4
SYMBOL cap 1568 -32 R90
WINDOW 0 0 32 VBottom 2
WINDOW 3 32 32 VTop 2
SYMATTR InstName C8
SYMATTR Value 151p
SYMBOL res 1584 -128 R90
WINDOW 0 0 56 VBottom 2
WINDOW 3 32 56 VTop 2
SYMATTR InstName R14
SYMATTR Value 47k
SYMBOL res 1712 80 R90
WINDOW 0 0 56 VBottom 2
WINDOW 3 32 56 VTop 2
SYMATTR InstName R15
SYMATTR Value 4.7k
SYMBOL pot 1728 112 R270
WINDOW 3 -93 23 Left 2
WINDOW 123 -71 57 Left 2
SYMATTR Value R=50k
SYMATTR Value2 W=0.5
SYMATTR InstName U5
SYMBOL res 1920 80 R90
WINDOW 0 0 56 VBottom 2
WINDOW 3 32 56 VTop 2
SYMATTR InstName R16
SYMATTR Value 4.7k
SYMBOL cap 1792 -16 R0
SYMATTR InstName C9
SYMATTR Value 33n
SYMBOL cap 1696 -16 R0
WINDOW 0 -40 4 Left 2
WINDOW 3 -43 47 Left 2
SYMATTR InstName C10
SYMATTR Value 33n
SYMBOL res 1744 -144 R0
SYMATTR InstName R17
SYMATTR Value 33k
SYMBOL EXTRA\\AudioOpamp\\TI\\TL072_TI 1904 -128 R0
SYMATTR InstName U6
SYMBOL res 1744 -256 R0
SYMATTR InstName R18
SYMATTR Value 10k
SYMBOL pot 1792 -320 R90
WINDOW 3 -93 23 Left 2
WINDOW 123 -71 57 Left 2
SYMATTR Value R=50k
SYMATTR Value2 W=0.5
SYMATTR InstName U7
SYMBOL cap 1696 -320 R90
WINDOW 0 0 32 VBottom 2
WINDOW 3 32 32 VTop 2
SYMATTR InstName C11
SYMATTR Value 4.7n
SYMBOL cap 1888 -320 R90
WINDOW 0 0 32 VBottom 2
WINDOW 3 32 32 VTop 2
SYMATTR InstName C12
SYMATTR Value 4.7n
SYMBOL pot 2016 -64 R0
WINDOW 3 -80 23 Left 2
WINDOW 123 -71 57 Left 2
SYMATTR Value R=100k
SYMATTR Value2 W=0.5
SYMATTR InstName U8
SYMBOL cap 2160 -48 R90
WINDOW 0 0 32 VBottom 2
WINDOW 3 32 32 VTop 2
SYMATTR InstName C13
SYMATTR Value 100n
SYMBOL res 2160 -32 R0
SYMATTR InstName R19
SYMATTR Value 470k
SYMBOL npn 2224 -80 R0
SYMATTR InstName Q1
SYMATTR Value 2N5088
SYMBOL res 2272 32 R0
SYMATTR InstName R20
SYMATTR Value 10k
SYMBOL cap 2400 16 R90
WINDOW 0 0 32 VBottom 2
WINDOW 3 32 32 VTop 2
SYMATTR InstName C14
SYMATTR Value 10µ
SYMBOL res 2528 16 R90
WINDOW 0 0 56 VBottom 2
WINDOW 3 32 56 VTop 2
SYMATTR InstName R21
SYMATTR Value 47
SYMBOL res 2512 32 R0
SYMATTR InstName R22
SYMATTR Value 100k
SYMBOL voltage 1152 -448 R0
WINDOW 123 0 0 Left 2
WINDOW 39 0 0 Left 2
SYMATTR InstName V2
SYMATTR Value 9
SYMBOL res 1248 -464 R0
SYMATTR InstName R23
SYMATTR Value 10k
SYMBOL res 1248 -352 R0
SYMATTR InstName R24
SYMATTR Value 10k
SYMBOL cap 1344 -336 R0
SYMATTR InstName C15
SYMATTR Value 220µ
SYMBOL cap 1024 -448 R0
SYMATTR InstName C16
SYMATTR Value 220µ
TEXT 1272 200 Left 2 !;tran 20m
TEXT 1272 240 Left 2 !.ac dec 1000 10 10000
TEXT 1272 272 Left 2 !;.step param W list 0.05, 0.25, 0.5, 0.75, 0.95
