Version 4
SHEET 1 2472 984
WIRE 192 -272 192 -304
WIRE 768 -160 768 -192
WIRE 1872 -160 1872 -192
WIRE 768 -32 768 -80
WIRE 848 -32 768 -32
WIRE 976 -32 912 -32
WIRE 1328 -32 976 -32
WIRE 1872 -32 1872 -80
WIRE 1936 -32 1872 -32
WIRE 2096 -32 2000 -32
WIRE 976 -16 976 -32
WIRE 1328 -16 1328 -32
WIRE 768 0 768 -32
WIRE 1872 0 1872 -32
WIRE 2096 32 2096 -32
WIRE 272 64 192 64
WIRE 400 64 352 64
WIRE 448 64 400 64
WIRE 544 64 448 64
WIRE 672 64 544 64
WIRE 720 64 672 64
WIRE 1408 64 1264 64
WIRE 1568 64 1488 64
WIRE 1664 64 1568 64
WIRE 1792 64 1664 64
WIRE 1824 64 1792 64
WIRE 2176 64 2128 64
WIRE 976 80 976 64
WIRE 1040 80 976 80
WIRE 1120 80 1104 80
WIRE 400 96 400 64
WIRE 976 96 976 80
WIRE 1328 96 1328 48
WIRE 448 112 448 64
WIRE 544 112 544 64
WIRE 672 112 672 64
WIRE 1568 112 1568 64
WIRE 1664 112 1664 64
WIRE 1792 112 1792 64
WIRE 192 128 192 64
WIRE 768 128 768 96
WIRE 848 128 768 128
WIRE 1120 128 1120 80
WIRE 1120 128 1008 128
WIRE 1152 128 1120 128
WIRE 1264 128 1264 64
WIRE 1264 128 1232 128
WIRE 1296 128 1264 128
WIRE 1872 144 1872 96
WIRE 1952 144 1872 144
WIRE 768 176 768 128
WIRE 848 176 848 128
WIRE 976 176 976 160
WIRE 1040 176 976 176
WIRE 1120 176 1120 128
WIRE 1120 176 1104 176
WIRE 976 192 976 176
WIRE 1872 192 1872 144
WIRE 1952 192 1952 144
WIRE 1328 208 1328 160
WIRE 416 432 416 416
WIRE 752 464 752 416
WIRE 1056 512 976 512
WIRE 1168 512 1056 512
WIRE 416 528 416 512
WIRE 416 528 272 528
WIRE 480 528 416 528
WIRE 592 528 560 528
WIRE 704 528 592 528
WIRE 1424 528 1424 416
WIRE 416 544 416 528
WIRE 976 544 976 512
WIRE 1168 544 1168 512
WIRE 272 560 272 528
WIRE 752 576 752 560
WIRE 864 576 752 576
WIRE 1056 576 1056 512
WIRE 1056 576 1008 576
WIRE 1136 576 1056 576
WIRE 1312 576 1280 576
WIRE 1360 576 1312 576
WIRE 752 592 752 576
WIRE 1312 608 1312 576
WIRE 1056 640 1056 576
WIRE 592 704 592 528
WIRE 640 704 592 704
WIRE 752 704 752 672
WIRE 752 704 704 704
WIRE 1056 720 1056 704
WIRE 1424 720 1424 624
WIRE 1424 720 1056 720
WIRE 1504 720 1424 720
WIRE 1664 720 1568 720
WIRE 752 752 752 704
WIRE 1664 752 1664 720
WIRE 1424 768 1424 720
WIRE 1776 784 1696 784
WIRE 448 816 384 816
WIRE 560 816 528 816
WIRE 656 816 560 816
WIRE 704 816 656 816
WIRE 560 864 560 816
WIRE 656 864 656 816
FLAG 192 208 0
FLAG 192 -192 0
FLAG 192 -304 V+
FLAG 400 176 0
FLAG 448 176 0
FLAG 544 176 0
FLAG 672 176 0
FLAG 768 256 0
FLAG 768 -192 V+
FLAG 976 272 0
FLAG 1328 272 0
FLAG 1568 176 0
FLAG 1664 176 0
FLAG 1792 176 0
FLAG 1872 -192 V+
FLAG 2096 176 0
FLAG 2176 64 Gain
FLAG 560 928 0
FLAG 656 928 0
FLAG 752 928 0
FLAG 384 816 Gain
FLAG 752 416 V+
FLAG 416 416 V+
FLAG 416 624 0
FLAG 272 624 0
FLAG 1312 672 0
FLAG 1424 416 V+
FLAG 1424 848 0
FLAG 1664 816 0
FLAG 848 256 0
FLAG 1872 272 0
FLAG 1952 272 0
SYMBOL voltage 192 112 R0
WINDOW 123 24 124 Left 2
WINDOW 39 0 0 Left 2
SYMATTR Value2 AC 1
SYMATTR InstName V1
SYMATTR Value SINE(0 0.5 1000)
SYMBOL voltage 192 -288 R0
WINDOW 123 0 0 Left 2
WINDOW 39 0 0 Left 2
SYMATTR InstName V2
SYMATTR Value 9
SYMBOL res 368 48 R90
WINDOW 0 0 56 VBottom 2
WINDOW 3 32 56 VTop 2
SYMATTR InstName R1
SYMATTR Value 33k
SYMBOL res 416 192 R180
WINDOW 0 36 76 Left 2
WINDOW 3 36 40 Left 2
SYMATTR InstName R2
SYMATTR Value 1Meg
SYMBOL cap 432 112 R0
SYMATTR InstName C1
SYMATTR Value 220p
SYMBOL LED 528 112 R0
WINDOW 3 -28 112 Left 2
SYMATTR Value LED_RED
SYMATTR InstName D1
SYMBOL LED 688 176 R180
WINDOW 0 31 1 Left 2
WINDOW 3 -35 -55 Left 2
SYMATTR InstName D2
SYMATTR Value LED_RED
SYMBOL njf 720 0 R0
SYMATTR InstName J1
SYMATTR Value 2N5457
SYMBOL res 752 160 R0
SYMATTR InstName R3
SYMATTR Value 390
SYMBOL res 752 -176 R0
SYMATTR InstName R4
SYMATTR Value 10k
SYMBOL cap 912 -48 R90
WINDOW 0 0 32 VBottom 2
WINDOW 3 32 32 VTop 2
SYMATTR InstName C2
SYMATTR Value 220n
SYMBOL res 960 -32 R0
SYMATTR InstName R5
SYMATTR Value 22k
SYMBOL pot 960 96 R0
SYMATTR InstName U1
SYMATTR Value R=100k
SYMATTR SpiceModel pot_log
SYMBOL res 960 176 R0
SYMATTR InstName R6
SYMATTR Value 3.9k
SYMBOL cap 1104 64 R90
WINDOW 0 0 32 VBottom 2
WINDOW 3 32 32 VTop 2
SYMATTR InstName C3
SYMATTR Value 22n
SYMBOL cap 1104 160 R90
WINDOW 0 0 32 VBottom 2
WINDOW 3 32 32 VTop 2
SYMATTR InstName C4
SYMATTR Value 100n
SYMBOL res 1248 112 R90
WINDOW 0 0 56 VBottom 2
WINDOW 3 32 56 VTop 2
SYMATTR InstName R7
SYMATTR Value 33k
SYMBOL pot 1344 96 M0
SYMATTR InstName U2
SYMATTR Value R=100k
SYMATTR SpiceModel pot_log
SYMBOL cap 1344 48 R180
WINDOW 0 24 56 Left 2
WINDOW 3 24 8 Left 2
SYMATTR InstName C5
SYMATTR Value 3.3n
SYMBOL cap 1344 272 R180
WINDOW 0 24 56 Left 2
WINDOW 3 24 8 Left 2
SYMATTR InstName C6
SYMATTR Value 10n
SYMBOL res 1504 48 R90
WINDOW 0 0 56 VBottom 2
WINDOW 3 32 56 VTop 2
SYMATTR InstName R8
SYMATTR Value 100k
SYMBOL cap 1552 112 R0
SYMATTR InstName C7
SYMATTR Value 220p
SYMBOL LED 1648 112 R0
WINDOW 3 -36 117 Left 2
SYMATTR Value LED_RED
SYMATTR InstName D3
SYMBOL LED 1808 176 R180
WINDOW 0 38 66 Left 2
WINDOW 3 -39 -56 Left 2
SYMATTR InstName D4
SYMATTR Value LED_RED
SYMBOL njf 1824 0 R0
SYMATTR InstName J2
SYMATTR Value 2N5457
SYMBOL res 1856 -176 R0
SYMATTR InstName R10
SYMATTR Value 10k
SYMBOL cap 2000 -48 R90
WINDOW 0 0 32 VBottom 2
WINDOW 3 32 32 VTop 2
SYMATTR InstName C8
SYMATTR Value 220n
SYMBOL pot 2080 32 R0
SYMATTR InstName U3
SYMATTR Value R=100k
SYMATTR Value2 W=0.5
SYMATTR SpiceModel pot_log
SYMBOL res 2080 80 R0
SYMATTR InstName R11
SYMATTR Value 6.8k
SYMBOL res 544 800 R90
WINDOW 0 0 56 VBottom 2
WINDOW 3 32 56 VTop 2
SYMATTR InstName R12
SYMATTR Value 10k
SYMBOL schottky 544 864 R0
WINDOW 3 -44 102 Left 2
SYMATTR Value 1N5818
SYMATTR InstName D5
SYMATTR Description Diode
SYMATTR Type diode
SYMBOL schottky 672 928 R180
WINDOW 0 24 64 Left 2
WINDOW 3 -44 -40 Left 2
SYMATTR InstName D6
SYMATTR Value 1N5818
SYMATTR Description Diode
SYMATTR Type diode
SYMBOL njf 704 752 R0
SYMATTR InstName J3
SYMATTR Value 2N5457
SYMBOL res 736 832 R0
SYMATTR InstName R13
SYMATTR Value 390
SYMBOL njf 704 464 R0
SYMATTR InstName J4
SYMATTR Value 2N5457
SYMBOL res 736 576 R0
SYMATTR InstName R14
SYMATTR Value 390
SYMBOL cap 704 688 R90
WINDOW 0 0 32 VBottom 2
WINDOW 3 32 32 VTop 2
SYMATTR InstName C9
SYMATTR Value 2.2µ
SYMBOL res 576 512 R90
WINDOW 0 0 56 VBottom 2
WINDOW 3 32 56 VTop 2
SYMATTR InstName R15
SYMATTR Value 1Meg
SYMBOL res 432 640 R180
WINDOW 0 36 76 Left 2
WINDOW 3 36 40 Left 2
SYMATTR InstName R16
SYMATTR Value 10k
SYMBOL res 432 528 R180
WINDOW 0 36 76 Left 2
WINDOW 3 36 40 Left 2
SYMATTR InstName R17
SYMATTR Value 10k
SYMBOL cap 256 560 R0
SYMATTR InstName C10
SYMATTR Value 100µ
SYMBOL res 960 560 R90
WINDOW 0 0 56 VBottom 2
WINDOW 3 32 56 VTop 2
SYMATTR InstName R18
SYMATTR Value 33k
SYMBOL res 1296 560 R90
WINDOW 0 0 56 VBottom 2
WINDOW 3 32 56 VTop 2
SYMATTR InstName R19
SYMATTR Value 33k
SYMBOL cap 1040 640 R0
SYMATTR InstName C11
SYMATTR Value 470p
SYMBOL cap 1296 608 R0
SYMATTR InstName C12
SYMATTR Value 220p
SYMBOL npn 1360 528 R0
SYMATTR InstName Q1
SYMATTR Value 2N3904
SYMBOL res 1408 752 R0
SYMATTR InstName R20
SYMATTR Value 10k
SYMBOL cap 1568 704 R90
WINDOW 0 0 32 VBottom 2
WINDOW 3 32 32 VTop 2
SYMATTR InstName C13
SYMATTR Value 220n
SYMBOL pot 1648 752 R0
SYMATTR InstName U4
SYMATTR Value R=100k
SYMATTR Value2 W=0.5
SYMATTR SpiceModel pot_log
SYMBOL pot 944 592 R270
SYMATTR InstName U5
SYMATTR Value R=100k
SYMATTR Value2 W=0.5
SYMBOL pot 1136 592 R270
SYMATTR InstName U6
SYMATTR Value R=100k
SYMATTR Value2 W=0.5
SYMBOL res 832 160 R0
SYMATTR InstName R21
SYMATTR Value 47
SYMBOL res 1856 176 R0
SYMATTR InstName R9
SYMATTR Value 390
SYMBOL res 1936 176 R0
SYMATTR InstName R22
SYMATTR Value 47
TEXT 192 -104 Left 2 !;tran 0 30m 10m
TEXT 192 -64 Left 2 !.ac dec 500 10 10000
TEXT 192 -24 Left 2 !;.step param W 0 1 0.2
