Version 4
SHEET 1 2472 680
WIRE 912 -464 736 -464
WIRE 1024 -464 992 -464
WIRE 1088 -464 1024 -464
WIRE 1872 -464 1696 -464
WIRE 1984 -464 1952 -464
WIRE 2048 -464 1984 -464
WIRE 192 -432 192 -512
WIRE 272 -432 192 -432
WIRE 448 -432 336 -432
WIRE 832 -432 448 -432
WIRE 1024 -432 1024 -464
WIRE 1232 -432 1184 -432
WIRE 1408 -432 1296 -432
WIRE 1792 -432 1408 -432
WIRE 1984 -432 1984 -464
WIRE 448 -400 448 -432
WIRE 832 -400 832 -432
WIRE 1408 -400 1408 -432
WIRE 1792 -400 1792 -432
WIRE 448 -304 448 -320
WIRE 496 -304 448 -304
WIRE 592 -304 560 -304
WIRE 1408 -304 1408 -320
WIRE 1456 -304 1408 -304
WIRE 1552 -304 1520 -304
WIRE 448 -288 448 -304
WIRE 832 -288 832 -336
WIRE 1408 -288 1408 -304
WIRE 1792 -288 1792 -336
WIRE 592 -256 592 -304
WIRE 592 -256 480 -256
WIRE 608 -256 592 -256
WIRE 736 -256 736 -464
WIRE 736 -256 688 -256
WIRE 800 -256 736 -256
WIRE 1552 -256 1552 -304
WIRE 1552 -256 1440 -256
WIRE 1568 -256 1552 -256
WIRE 1696 -256 1696 -464
WIRE 1696 -256 1648 -256
WIRE 1760 -256 1696 -256
WIRE 448 -208 448 -224
WIRE 496 -208 448 -208
WIRE 592 -208 592 -256
WIRE 592 -208 560 -208
WIRE 1408 -208 1408 -224
WIRE 1456 -208 1408 -208
WIRE 1552 -208 1552 -256
WIRE 1552 -208 1520 -208
WIRE 448 -192 448 -208
WIRE 832 -176 832 -224
WIRE 1792 -176 1792 -224
WIRE 1408 -144 1408 -208
WIRE 1408 -64 1408 -80
WIRE 1440 -64 1440 -112
WIRE 1440 -64 1408 -64
WIRE 1408 -48 1408 -64
WIRE 912 32 736 32
WIRE 1024 32 992 32
WIRE 1088 32 1024 32
WIRE 2048 32 1712 32
WIRE 2160 32 2128 32
WIRE 2224 32 2160 32
WIRE 192 64 192 -432
WIRE 272 64 192 64
WIRE 448 64 336 64
WIRE 832 64 448 64
WIRE 1024 64 1024 32
WIRE 1232 64 1184 64
WIRE 1408 64 1296 64
WIRE 1904 64 1408 64
WIRE 2160 64 2160 32
WIRE 448 96 448 64
WIRE 832 96 832 64
WIRE 1408 96 1408 64
WIRE 1904 96 1904 64
WIRE 1712 112 1712 32
WIRE 1792 112 1712 112
WIRE 192 128 192 64
WIRE 1792 144 1792 112
WIRE 448 192 448 176
WIRE 496 192 448 192
WIRE 592 192 560 192
WIRE 1408 192 1408 176
WIRE 1456 192 1408 192
WIRE 1552 192 1520 192
WIRE 448 208 448 192
WIRE 832 208 832 160
WIRE 1408 208 1408 192
WIRE 1712 208 1712 112
WIRE 1904 208 1904 160
WIRE 592 240 592 192
WIRE 592 240 480 240
WIRE 608 240 592 240
WIRE 736 240 736 32
WIRE 736 240 688 240
WIRE 800 240 736 240
WIRE 1552 240 1552 192
WIRE 1552 240 1440 240
WIRE 1568 240 1552 240
WIRE 1680 240 1648 240
WIRE 1792 240 1792 208
WIRE 1792 240 1744 240
WIRE 1872 240 1792 240
WIRE 448 288 448 272
WIRE 496 288 448 288
WIRE 592 288 592 240
WIRE 592 288 560 288
WIRE 1408 288 1408 272
WIRE 1456 288 1408 288
WIRE 1552 288 1552 240
WIRE 1552 288 1520 288
WIRE 448 304 448 288
WIRE 1408 304 1408 288
WIRE 832 320 832 272
WIRE 1904 320 1904 272
FLAG 192 208 0
FLAG 448 384 0
FLAG 832 384 0
FLAG 1024 128 0
FLAG 1408 384 0
FLAG 1904 384 0
FLAG 2160 128 0
FLAG 1792 -112 0
FLAG 1984 -368 0
FLAG 1408 -48 0
FLAG 448 -112 0
FLAG 832 -112 0
FLAG 1024 -368 0
FLAG 192 -512 In
FLAG 1184 -432 In
FLAG 1184 64 In
SYMBOL voltage 192 112 R0
WINDOW 123 24 124 Left 2
WINDOW 39 0 0 Left 2
SYMATTR InstName V1
SYMATTR Value SINE(0 1 660)
SYMATTR Value2 AC 1
SYMBOL cap 336 48 R90
WINDOW 0 0 32 VBottom 2
WINDOW 3 32 32 VTop 2
SYMATTR InstName C1
SYMATTR Value 220n
SYMBOL res 432 80 R0
SYMATTR InstName R1
SYMATTR Value 22k
SYMBOL pot 432 208 R0
SYMATTR InstName U1
SYMATTR Value R=100k
SYMATTR Value2 W=0.5
SYMATTR SpiceModel pot_log
SYMBOL res 432 288 R0
SYMATTR InstName R2
SYMATTR Value 3.9k
SYMBOL cap 560 176 R90
WINDOW 0 0 32 VBottom 2
WINDOW 3 32 32 VTop 2
SYMATTR InstName C2
SYMATTR Value 22n
SYMBOL cap 560 272 R90
WINDOW 0 0 32 VBottom 2
WINDOW 3 32 32 VTop 2
SYMATTR InstName C3
SYMATTR Value 100n
SYMBOL res 704 224 R90
WINDOW 0 0 56 VBottom 2
WINDOW 3 32 56 VTop 2
SYMATTR InstName R3
SYMATTR Value 33k
SYMBOL pot 848 208 M0
SYMATTR InstName U2
SYMATTR Value R=100k
SYMATTR Value2 W=0.5
SYMATTR SpiceModel pot_log
SYMBOL cap 848 160 R180
WINDOW 0 24 56 Left 2
WINDOW 3 24 8 Left 2
SYMATTR InstName C4
SYMATTR Value 3.3n
SYMBOL cap 848 384 R180
WINDOW 0 24 56 Left 2
WINDOW 3 24 8 Left 2
SYMATTR InstName C5
SYMATTR Value 10n
SYMBOL res 1008 16 R90
WINDOW 0 0 56 VBottom 2
WINDOW 3 32 56 VTop 2
SYMATTR InstName R4
SYMATTR Value 100k
SYMBOL cap 1008 64 R0
SYMATTR InstName C6
SYMATTR Value 100p
SYMBOL res 1392 80 R0
SYMATTR InstName R5
SYMATTR Value 22k
SYMBOL pot 1392 208 R0
SYMATTR InstName U3
SYMATTR Value R=100k
SYMATTR Value2 W=0.5
SYMATTR SpiceModel pot_log
SYMBOL res 1392 288 R0
SYMATTR InstName R6
SYMATTR Value 3.9k
SYMBOL cap 1520 176 R90
WINDOW 0 0 32 VBottom 2
WINDOW 3 32 32 VTop 2
SYMATTR InstName C7
SYMATTR Value 22n
SYMBOL cap 1520 272 R90
WINDOW 0 0 32 VBottom 2
WINDOW 3 32 32 VTop 2
SYMATTR InstName C8
SYMATTR Value 100n
SYMBOL res 1664 224 R90
WINDOW 0 0 56 VBottom 2
WINDOW 3 32 56 VTop 2
SYMATTR InstName R7
SYMATTR Value 10k
SYMBOL pot 1920 208 M0
SYMATTR InstName U4
SYMATTR Value R=100k
SYMATTR Value2 W=0.5
SYMATTR SpiceModel pot_log
SYMBOL cap 1920 160 R180
WINDOW 0 24 56 Left 2
WINDOW 3 24 8 Left 2
SYMATTR InstName C9
SYMATTR Value 3.3n
SYMBOL cap 1920 384 R180
WINDOW 0 24 56 Left 2
WINDOW 3 24 8 Left 2
SYMATTR InstName C10
SYMATTR Value 10n
SYMBOL res 2144 16 R90
WINDOW 0 0 56 VBottom 2
WINDOW 3 32 56 VTop 2
SYMATTR InstName R8
SYMATTR Value 100k
SYMBOL cap 2144 64 R0
SYMATTR InstName C11
SYMATTR Value 100p
SYMBOL cap 1296 48 R90
WINDOW 0 0 32 VBottom 2
WINDOW 3 32 32 VTop 2
SYMATTR InstName C12
SYMATTR Value 220n
SYMBOL pot 1744 256 M270
SYMATTR InstName U5
SYMATTR Value R=100k
SYMATTR Value2 W={W}
SYMATTR SpiceModel pot_log
SYMBOL cap 1776 144 R0
SYMATTR InstName C13
SYMATTR Value 100n
SYMBOL res 1392 -416 R0
SYMATTR InstName R9
SYMATTR Value 22k
SYMBOL pot 1392 -288 R0
SYMATTR InstName U6
SYMATTR Value R=100k
SYMATTR Value2 W=0.5
SYMATTR SpiceModel pot_log
SYMBOL cap 1520 -320 R90
WINDOW 0 0 32 VBottom 2
WINDOW 3 32 32 VTop 2
SYMATTR InstName C14
SYMATTR Value 22n
SYMBOL cap 1520 -224 R90
WINDOW 0 0 32 VBottom 2
WINDOW 3 32 32 VTop 2
SYMATTR InstName C15
SYMATTR Value 100n
SYMBOL res 1664 -272 R90
WINDOW 0 0 56 VBottom 2
WINDOW 3 32 56 VTop 2
SYMATTR InstName R11
SYMATTR Value 33k
SYMBOL pot 1808 -288 M0
SYMATTR InstName U7
SYMATTR Value R=100k
SYMATTR Value2 W=0.5
SYMATTR SpiceModel pot_log
SYMBOL cap 1808 -336 R180
WINDOW 0 24 56 Left 2
WINDOW 3 24 8 Left 2
SYMATTR InstName C16
SYMATTR Value 3.3n
SYMBOL cap 1808 -112 R180
WINDOW 0 24 56 Left 2
WINDOW 3 24 8 Left 2
SYMATTR InstName C17
SYMATTR Value 10n
SYMBOL res 1968 -480 R90
WINDOW 0 0 56 VBottom 2
WINDOW 3 32 56 VTop 2
SYMATTR InstName R12
SYMATTR Value 100k
SYMBOL cap 1968 -432 R0
SYMATTR InstName C18
SYMATTR Value 100p
SYMBOL cap 1296 -448 R90
WINDOW 0 0 32 VBottom 2
WINDOW 3 32 32 VTop 2
SYMATTR InstName C19
SYMATTR Value 220n
SYMBOL pot 1392 -144 R0
SYMATTR InstName U8
SYMATTR Value R=5k
SYMATTR Value2 W={W}
SYMBOL cap 336 -448 R90
WINDOW 0 0 32 VBottom 2
WINDOW 3 32 32 VTop 2
SYMATTR InstName C20
SYMATTR Value 220n
SYMBOL res 432 -416 R0
SYMATTR InstName R10
SYMATTR Value 22k
SYMBOL pot 432 -288 R0
SYMATTR InstName U9
SYMATTR Value R=100k
SYMATTR Value2 W=0.5
SYMATTR SpiceModel pot_log
SYMBOL res 432 -208 R0
SYMATTR InstName R13
SYMATTR Value 3.9k
SYMBOL cap 560 -320 R90
WINDOW 0 0 32 VBottom 2
WINDOW 3 32 32 VTop 2
SYMATTR InstName C21
SYMATTR Value 22n
SYMBOL cap 560 -224 R90
WINDOW 0 0 32 VBottom 2
WINDOW 3 32 32 VTop 2
SYMATTR InstName C22
SYMATTR Value 100n
SYMBOL res 704 -272 R90
WINDOW 0 0 56 VBottom 2
WINDOW 3 32 56 VTop 2
SYMATTR InstName R14
SYMATTR Value 33k
SYMBOL pot 848 -288 M0
SYMATTR InstName U10
SYMATTR Value R=100k
SYMATTR Value2 W=0.5
SYMATTR SpiceModel pot_log
SYMBOL cap 848 -336 R180
WINDOW 0 24 56 Left 2
WINDOW 3 24 8 Left 2
SYMATTR InstName C23
SYMATTR Value 6.8n
SYMBOL cap 848 -112 R180
WINDOW 0 24 56 Left 2
WINDOW 3 24 8 Left 2
SYMATTR InstName C24
SYMATTR Value 10n
SYMBOL res 1008 -480 R90
WINDOW 0 0 56 VBottom 2
WINDOW 3 32 56 VTop 2
SYMATTR InstName R15
SYMATTR Value 100k
SYMBOL cap 1008 -432 R0
SYMATTR InstName C25
SYMATTR Value 100p
TEXT 192 -104 Left 2 !;tran 0 30m 10m
TEXT 192 -64 Left 2 !.ac dec 500 10 10000
TEXT 200 -24 Left 2 !.step param W 0 1 0.2
