Version 4
SHEET 1 2788 680
WIRE 96 -288 64 -288
WIRE 176 -288 96 -288
WIRE 256 -288 176 -288
WIRE 96 -272 96 -288
WIRE 256 -272 256 -288
WIRE 176 -240 176 -288
WIRE 256 -176 256 -192
WIRE 336 -176 256 -176
WIRE 384 -176 336 -176
WIRE 256 -160 256 -176
WIRE 336 -160 336 -176
WIRE 1696 -64 1696 -112
WIRE 1760 -64 1696 -64
WIRE 1904 -64 1760 -64
WIRE 1696 -32 1696 -64
WIRE 1760 -16 1760 -64
WIRE 464 32 464 16
WIRE 608 48 592 48
WIRE 704 48 672 48
WIRE 1008 48 880 48
WIRE 1072 48 1008 48
WIRE 1248 48 1152 48
WIRE 1696 64 1696 48
WIRE 1760 64 1760 48
WIRE 1760 64 1696 64
WIRE 1824 64 1760 64
WIRE 1920 64 1888 64
WIRE 2176 64 2048 64
WIRE 2240 64 2176 64
WIRE 2416 64 2320 64
WIRE 1696 80 1696 64
WIRE 192 96 176 96
WIRE 288 96 272 96
WIRE 368 96 352 96
WIRE 416 96 368 96
WIRE 368 112 368 96
WIRE 880 112 880 48
WIRE 896 112 880 112
WIRE 1008 128 1008 48
WIRE 1008 128 960 128
WIRE 1040 128 1008 128
WIRE 1136 128 1104 128
WIRE 1248 128 1248 48
WIRE 1248 128 1216 128
WIRE 1280 128 1248 128
WIRE 2048 128 2048 64
WIRE 2064 128 2048 128
WIRE 464 144 464 128
WIRE 512 144 464 144
WIRE 592 144 592 48
WIRE 592 144 576 144
WIRE 608 144 592 144
WIRE 704 144 704 48
WIRE 704 144 688 144
WIRE 736 144 704 144
WIRE 784 144 736 144
WIRE 880 144 864 144
WIRE 896 144 880 144
WIRE 1376 144 1344 144
WIRE 1424 144 1376 144
WIRE 1504 144 1488 144
WIRE 1616 144 1584 144
WIRE 1648 144 1616 144
WIRE 2176 144 2176 64
WIRE 2176 144 2128 144
WIRE 2208 144 2176 144
WIRE 2304 144 2272 144
WIRE 2416 144 2416 64
WIRE 2416 144 2384 144
WIRE 2448 144 2416 144
WIRE 176 160 176 96
WIRE 464 160 464 144
WIRE 736 160 736 144
WIRE 1280 160 1264 160
WIRE 1920 160 1920 64
WIRE 1952 160 1920 160
WIRE 2048 160 2032 160
WIRE 2064 160 2048 160
WIRE 2544 160 2512 160
WIRE 2592 160 2544 160
WIRE 2672 160 2656 160
WIRE 1264 176 1264 160
WIRE 1616 176 1616 144
WIRE 2448 176 2432 176
WIRE 1920 192 1920 160
WIRE 2432 192 2432 176
WIRE 368 208 368 192
WIRE 1696 208 1696 176
WIRE 1376 240 1376 144
WIRE 1376 240 1312 240
WIRE 736 256 736 240
WIRE 1312 256 1312 240
WIRE 1248 288 1248 128
WIRE 1280 288 1248 288
WIRE 1376 288 1376 240
WIRE 1376 288 1344 288
WIRE 1920 288 1920 272
WIRE 1376 304 1376 288
WIRE 2416 304 2416 144
WIRE 2448 304 2416 304
WIRE 2544 304 2544 160
WIRE 2544 304 2528 304
WIRE 2544 320 2544 304
WIRE 880 400 880 144
WIRE 1168 400 880 400
WIRE 1376 400 1376 384
WIRE 1376 400 1232 400
WIRE 1440 400 1376 400
WIRE 1552 400 1520 400
WIRE 1376 416 1376 400
WIRE 2048 416 2048 160
WIRE 2336 416 2048 416
WIRE 2544 416 2544 400
WIRE 2544 416 2400 416
WIRE 2608 416 2544 416
WIRE 2720 416 2688 416
WIRE 2544 432 2544 416
FLAG 176 240 0
FLAG 176 -160 0
FLAG 64 -288 V+
FLAG 1904 0 0
FLAG 1696 288 0
FLAG 1696 -192 V+
FLAG 384 -176 Vref
FLAG 96 -208 0
FLAG 256 -80 0
FLAG 336 -96 0
FLAG 368 208 Vref
FLAG 464 16 V+
FLAG 464 240 0
FLAG 736 256 Vref
FLAG 928 160 0
FLAG 928 96 V+
FLAG 1264 176 Vref
FLAG 1312 112 V+
FLAG 1312 176 0
FLAG 1376 496 0
FLAG 1552 400 V+
FLAG 1616 256 0
FLAG 2096 176 0
FLAG 2096 112 V+
FLAG 2432 192 Vref
FLAG 2480 128 V+
FLAG 2480 192 0
FLAG 2544 512 0
FLAG 2720 416 V+
FLAG 1920 288 Vref
SYMBOL voltage 176 144 R0
WINDOW 123 -104 92 Left 2
WINDOW 39 0 0 Left 2
WINDOW 0 -81 18 Left 2
WINDOW 3 -254 54 Left 2
SYMATTR Value2 AC 1
SYMATTR InstName V1
SYMATTR Value SINE(0 200m 800)
SYMBOL voltage 176 -256 R0
WINDOW 123 0 0 Left 2
WINDOW 39 0 0 Left 2
SYMATTR InstName V2
SYMATTR Value 9
SYMBOL njf 1648 80 R0
SYMATTR InstName J1
SYMATTR Value KP303A
SYMBOL res 1680 -48 R0
WINDOW 0 -49 23 Left 2
WINDOW 3 -51 58 Left 2
SYMATTR InstName R2
SYMATTR Value 100k
SYMBOL res 1680 -208 R0
SYMATTR InstName R3
SYMATTR Value 3.3k
SYMBOL cap 1744 -16 R0
SYMATTR InstName C1
SYMATTR Value 470p
SYMBOL cap 1888 -64 R0
SYMATTR InstName C2
SYMATTR Value 100
SYMBOL res 1680 192 R0
SYMATTR InstName R4
SYMATTR Value 39k
SYMBOL cap 1888 48 R90
WINDOW 0 0 32 VBottom 2
WINDOW 3 32 32 VTop 2
SYMATTR InstName C3
SYMATTR Value 22n
SYMBOL cap 80 -272 R0
WINDOW 3 -65 51 Left 2
SYMATTR InstName C4
SYMATTR Value 100
SYMBOL res 240 -288 R0
SYMATTR InstName R5
SYMATTR Value 10k
SYMBOL res 240 -176 R0
SYMATTR InstName R6
SYMATTR Value 10k
SYMBOL cap 320 -160 R0
SYMATTR InstName C5
SYMATTR Value 100
SYMBOL res 288 80 R90
WINDOW 0 0 56 VBottom 2
WINDOW 3 32 56 VTop 2
SYMATTR InstName R1
SYMATTR Value 10k
SYMBOL cap 352 80 R90
WINDOW 0 0 32 VBottom 2
WINDOW 3 32 32 VTop 2
SYMATTR InstName C6
SYMATTR Value 4.7n
SYMBOL res 352 96 R0
SYMATTR InstName R7
SYMATTR Value 1Meg
SYMBOL njf 416 32 R0
WINDOW 0 49 20 Left 2
WINDOW 3 52 55 Left 2
SYMATTR InstName J2
SYMATTR Value KP303A
SYMBOL res 448 144 R0
SYMATTR InstName R8
SYMATTR Value 20k
SYMBOL cap 576 128 R90
WINDOW 0 0 32 VBottom 2
WINDOW 3 32 32 VTop 2
SYMATTR InstName C7
SYMATTR Value 100n
SYMBOL cap 672 32 R90
WINDOW 0 0 32 VBottom 2
WINDOW 3 32 32 VTop 2
SYMATTR InstName C8
SYMATTR Value 22n
SYMBOL res 704 128 R90
WINDOW 0 0 56 VBottom 2
WINDOW 3 32 56 VTop 2
SYMATTR InstName R9
SYMATTR Value 68k
SYMBOL res 720 144 R0
SYMATTR InstName R10
SYMATTR Value 47k
SYMBOL res 880 128 R90
WINDOW 0 0 56 VBottom 2
WINDOW 3 32 56 VTop 2
SYMATTR InstName R11
SYMATTR Value 56k
SYMBOL EXTRA\\AudioOpamp\\TI\\TL072_TI 928 128 R0
SYMATTR InstName U1
SYMBOL cap 1104 112 R90
WINDOW 0 0 32 VBottom 2
WINDOW 3 32 32 VTop 2
SYMATTR InstName C9
SYMATTR Value 100n
SYMBOL res 1232 112 R90
WINDOW 0 0 56 VBottom 2
WINDOW 3 32 56 VTop 2
SYMATTR InstName R12
SYMATTR Value 1.8k
SYMBOL res 1168 32 R90
WINDOW 0 0 56 VBottom 2
WINDOW 3 32 56 VTop 2
SYMATTR InstName R13
SYMATTR Value 1.8k
SYMBOL EXTRA\\AudioOpamp\\TI\\TL072_TI 1312 144 R0
SYMATTR InstName U2
SYMBOL pot 1280 304 R270
SYMATTR InstName U4
SYMATTR Value R=100k
SYMATTR Value2 W=0.75
SYMBOL cap 1488 128 R90
WINDOW 0 0 32 VBottom 2
WINDOW 3 32 32 VTop 2
SYMATTR InstName C10
SYMATTR Value 1n
SYMBOL res 1360 288 R0
SYMATTR InstName R14
SYMATTR Value 4.7k
SYMBOL res 1360 400 R0
SYMATTR InstName R15
SYMATTR Value 6.8k
SYMBOL res 1536 384 R90
WINDOW 0 0 56 VBottom 2
WINDOW 3 32 56 VTop 2
SYMATTR InstName R16
SYMATTR Value 6.2k
SYMBOL diode 1168 416 R270
WINDOW 0 32 32 VTop 2
WINDOW 3 0 32 VBottom 2
SYMATTR InstName D1
SYMATTR Value 1N914
SYMBOL res 1600 128 R90
WINDOW 0 0 56 VBottom 2
WINDOW 3 32 56 VTop 2
SYMATTR InstName R17
SYMATTR Value 470k
SYMBOL res 1600 160 R0
SYMATTR InstName R18
SYMATTR Value 1Meg
SYMBOL EXTRA\\AudioOpamp\\TI\\TL072_TI 2096 144 R0
SYMATTR InstName U3
SYMBOL cap 2272 128 R90
WINDOW 0 0 32 VBottom 2
WINDOW 3 32 32 VTop 2
SYMATTR InstName C11
SYMATTR Value 1
SYMBOL res 2400 128 R90
WINDOW 0 0 56 VBottom 2
WINDOW 3 32 56 VTop 2
SYMATTR InstName R19
SYMATTR Value 1.8k
SYMBOL res 2336 48 R90
WINDOW 0 0 56 VBottom 2
WINDOW 3 32 56 VTop 2
SYMATTR InstName R20
SYMATTR Value 1.8k
SYMBOL EXTRA\\AudioOpamp\\TI\\TL072_TI 2480 160 R0
SYMATTR InstName U5
SYMBOL cap 2656 144 R90
WINDOW 0 0 32 VBottom 2
WINDOW 3 32 32 VTop 2
SYMATTR InstName C12
SYMATTR Value 47n
SYMBOL res 2528 304 R0
SYMATTR InstName R21
SYMATTR Value 4.7k
SYMBOL res 2528 416 R0
SYMATTR InstName R22
SYMATTR Value 6.8k
SYMBOL res 2704 400 R90
WINDOW 0 0 56 VBottom 2
WINDOW 3 32 56 VTop 2
SYMATTR InstName R23
SYMATTR Value 6.2k
SYMBOL diode 2336 432 R270
WINDOW 0 32 32 VTop 2
WINDOW 3 0 32 VBottom 2
SYMATTR InstName D2
SYMATTR Value 1N914
SYMBOL res 2048 144 R90
WINDOW 0 0 56 VBottom 2
WINDOW 3 32 56 VTop 2
SYMATTR InstName R25
SYMATTR Value 220k
SYMBOL res 1904 176 R0
SYMATTR InstName R26
SYMATTR Value 330k
SYMBOL res 2544 288 R90
WINDOW 0 0 56 VBottom 2
WINDOW 3 32 56 VTop 2
SYMATTR InstName R27
SYMATTR Value 1.8k
TEXT -96 16 Left 2 !.ac dec 1000 20 10000
TEXT -96 56 Left 2 !;tran 0 20ms 1u 1u
TEXT 1608 472 Left 2 !;.step param W list 0.05, 0.25, 0.5, 0.75, 0.95
