Version 4
SHEET 1 3188 1764
WIRE -48 -960 -128 -960
WIRE -48 -944 -48 -960
WIRE -128 -912 -128 -960
WIRE 400 -720 400 -752
WIRE 560 -720 560 -752
WIRE 256 -624 192 -624
WIRE 864 -624 768 -624
WIRE 192 -608 192 -624
WIRE 768 -608 768 -624
WIRE 160 -576 112 -576
WIRE 256 -576 256 -624
WIRE 256 -576 224 -576
WIRE 288 -576 256 -576
WIRE 400 -576 400 -640
WIRE 400 -576 352 -576
WIRE 448 -576 400 -576
WIRE 560 -576 560 -640
WIRE 560 -576 512 -576
WIRE 640 -576 560 -576
WIRE 736 -576 704 -576
WIRE 864 -576 864 -624
WIRE 864 -576 800 -576
WIRE 928 -576 864 -576
WIRE 864 -544 864 -576
WIRE 560 -528 560 -576
WIRE 112 -480 112 -576
WIRE 112 -480 0 -480
WIRE 288 -480 112 -480
WIRE 400 -480 400 -576
WIRE 400 -480 352 -480
WIRE 496 -480 400 -480
WIRE 0 -464 0 -480
WIRE 112 -464 112 -480
WIRE 400 -464 400 -480
WIRE 560 -416 560 -432
WIRE 592 -416 560 -416
WIRE 688 -416 656 -416
WIRE 560 -400 560 -416
WIRE 688 -400 688 -416
FLAG 0 -384 0
FLAG -128 -832 0
FLAG -48 -880 0
FLAG -128 -960 V+
FLAG 400 -384 0
FLAG 560 -320 0
FLAG 688 -320 0
FLAG 400 -752 V+
FLAG 560 -752 V+
FLAG 112 -384 0
FLAG 864 -480 0
SYMBOL voltage 0 -480 R0
WINDOW 0 -80 16 Left 2
WINDOW 3 -219 63 Left 2
WINDOW 123 -108 110 Left 2
WINDOW 39 0 0 Left 2
SYMATTR InstName V1
SYMATTR Value SINE(0 0.2 1000)
SYMATTR Value2 AC 1
SYMBOL cap -64 -944 R0
SYMATTR InstName C12
SYMATTR Value 220µ
SYMBOL voltage -128 -928 R0
WINDOW 123 0 0 Left 2
WINDOW 39 0 0 Left 2
SYMATTR InstName V2
SYMATTR Value 9
SYMBOL cap 352 -496 R90
WINDOW 0 0 32 VBottom 2
WINDOW 3 32 32 VTop 2
SYMATTR InstName C3
SYMATTR Value 4.7n
SYMBOL cap 352 -592 R90
WINDOW 0 0 32 VBottom 2
WINDOW 3 32 32 VTop 2
SYMATTR InstName C4
SYMATTR Value 68n
SYMBOL res 384 -480 R0
SYMATTR InstName R2
SYMATTR Value 68k
SYMBOL npn 496 -528 R0
WINDOW 0 89 3 Left 2
WINDOW 3 88 31 Left 2
SYMATTR InstName Q1
SYMATTR Value 2N3904
SYMBOL res 416 -736 M0
SYMATTR InstName R3
SYMATTR Value 220k
SYMBOL res 576 -416 M0
SYMATTR InstName R4
SYMATTR Value 4.7k
SYMBOL cap 656 -432 R90
WINDOW 0 0 32 VBottom 2
WINDOW 3 32 32 VTop 2
SYMATTR InstName C5
SYMATTR Value 47µ
SYMBOL res 672 -416 R0
SYMATTR InstName R5
SYMATTR Value 47k
SYMBOL cap 512 -592 R90
WINDOW 0 0 32 VBottom 2
WINDOW 3 32 32 VTop 2
SYMATTR InstName C6
SYMATTR Value 47p
SYMBOL res 544 -736 R0
SYMATTR InstName R1
SYMATTR Value 10k
SYMBOL cap 704 -592 R90
WINDOW 0 0 32 VBottom 2
WINDOW 3 32 32 VTop 2
SYMATTR InstName C1
SYMATTR Value 100n
SYMBOL pot 160 -560 R270
SYMATTR InstName U1
SYMATTR Value R=500k
SYMATTR Value2 W=0.5
SYMATTR SpiceModel pot_exp
SYMBOL res 96 -480 R0
SYMATTR InstName R6
SYMATTR Value 1Meg
SYMBOL pot 736 -560 R270
SYMATTR InstName U2
SYMATTR Value2 W={W}
SYMBOL cap 848 -544 R0
SYMATTR InstName C2
SYMATTR Value 10n
TEXT 56 -952 Left 2 !;tran 0 20m 10m
TEXT 56 -912 Left 2 !.ac dec 500 20 10000
TEXT 56 -880 Left 2 !.step param W 0 1 0.2
