Version 4
SHEET 1 4344 1832
WIRE -2240 -352 -2400 -352
WIRE -2080 -352 -2240 -352
WIRE -2000 -352 -2080 -352
WIRE -2240 -304 -2240 -352
WIRE -2080 -304 -2080 -352
WIRE -1440 -272 -1584 -272
WIRE -1264 -272 -1376 -272
WIRE -2400 -224 -2400 -352
WIRE -2080 -208 -2080 -240
WIRE -1584 -192 -1584 -272
WIRE -1440 -192 -1584 -192
WIRE -1264 -192 -1264 -272
WIRE -1264 -192 -1376 -192
WIRE -2240 -160 -2240 -224
WIRE -2080 -160 -2240 -160
WIRE -2016 -160 -2080 -160
WIRE -2240 -128 -2240 -160
WIRE -2080 -128 -2080 -160
WIRE -1584 -80 -1584 -192
WIRE -1440 -80 -1584 -80
WIRE -1264 -80 -1264 -192
WIRE -1264 -80 -1376 -80
WIRE -2400 -16 -2400 -144
WIRE -2240 -16 -2240 -48
WIRE -2080 -16 -2080 -64
WIRE -1584 16 -1584 -80
WIRE -1552 16 -1584 16
WIRE -1424 16 -1472 16
WIRE -1360 16 -1424 16
WIRE -1264 16 -1264 -80
WIRE -1264 16 -1280 16
WIRE -1424 48 -1424 16
WIRE -1424 128 -1424 112
WIRE -1424 128 -1456 128
WIRE -1424 144 -1424 128
WIRE -1456 176 -1456 128
WIRE -1424 224 -1424 208
WIRE -672 320 -752 320
WIRE -528 320 -592 320
WIRE -1424 464 -1424 416
WIRE -1584 480 -1584 16
WIRE -1456 480 -1584 480
WIRE -624 480 -624 464
WIRE -1264 496 -1264 16
WIRE -1264 496 -1392 496
WIRE -1216 496 -1264 496
WIRE -752 496 -752 320
WIRE -752 496 -1136 496
WIRE -656 496 -752 496
WIRE -1984 512 -2128 512
WIRE -1904 512 -1984 512
WIRE -1792 512 -1840 512
WIRE -1648 512 -1712 512
WIRE -1456 512 -1648 512
WIRE -528 512 -528 320
WIRE -528 512 -592 512
WIRE -496 512 -528 512
WIRE -400 512 -432 512
WIRE -288 512 -320 512
WIRE -224 512 -288 512
WIRE -656 528 -752 528
WIRE -1648 560 -1648 512
WIRE -288 560 -288 512
WIRE -2128 576 -2128 512
WIRE -1984 576 -1984 512
WIRE -1424 576 -1424 528
WIRE -624 592 -624 544
WIRE -752 656 -752 528
WIRE -1648 688 -1648 640
WIRE -288 688 -288 640
WIRE -2128 720 -2128 656
WIRE -1984 720 -1984 656
FLAG -288 688 0
FLAG -1424 576 0
FLAG -1424 416 Vcc
IOPIN -1424 416 Out
FLAG -224 512 OUTLINE
IOPIN -224 512 Out
FLAG -1424 224 0
FLAG -1984 720 0
FLAG -2400 -16 0
FLAG -2000 -352 Vcc
IOPIN -2000 -352 Out
FLAG -2240 -16 0
FLAG -2080 -16 0
FLAG -2016 -160 Vb1
IOPIN -2016 -160 Out
FLAG -1648 688 Vb1
IOPIN -1648 688 Out
FLAG -2128 720 0
FLAG -624 464 Vcc
IOPIN -624 464 Out
FLAG -624 592 0
FLAG -752 656 Vb1
IOPIN -752 656 Out
FLAG -2080 -208 0
SYMBOL res -1456 0 R90
WINDOW 0 0 56 VBottom 2
WINDOW 3 32 56 VTop 2
SYMATTR InstName R21
SYMATTR Value 7.5k
SYMBOL cap -432 496 R90
WINDOW 0 0 32 VBottom 2
WINDOW 3 32 32 VTop 2
SYMATTR InstName C14
SYMATTR Value 1µ
SYMATTR SpiceLine V=10 Irms=0 Rser=0.009 Lser=0 mfg="TDK" pn="C1608X5RIA105K" type="X5R"
SYMBOL res -304 496 R90
WINDOW 0 0 56 VBottom 2
WINDOW 3 32 56 VTop 2
SYMATTR InstName R23
SYMATTR Value 1k
SYMBOL res -304 544 R0
SYMATTR InstName R24
SYMATTR Value 50k
SYMBOL res -1120 480 R90
WINDOW 0 0 56 VBottom 2
WINDOW 3 32 56 VTop 2
SYMATTR InstName R25
SYMATTR Value 1k
SYMBOL cap -1376 -96 R90
WINDOW 0 0 32 VBottom 2
WINDOW 3 32 32 VTop 2
SYMATTR InstName C19
SYMATTR Value 220n
SYMBOL res -1264 0 R90
WINDOW 0 0 56 VBottom 2
WINDOW 3 32 56 VTop 2
SYMATTR InstName R26
SYMATTR Value 10k
SYMBOL cap -1440 48 R0
WINDOW 3 33 50 Left 2
SYMATTR Value 1µ
SYMATTR InstName C20
SYMATTR SpiceLine V=50 Irms=5.62 Rser=0.007 Lser=0 mfg="KEMET" pn="C1210C105K5PAC" type="X5R"
SYMBOL res -2000 560 R0
SYMATTR InstName R33
SYMATTR Value 2.2Meg
SYMBOL res -2256 -320 R0
SYMATTR InstName R35
SYMATTR Value 39k
SYMBOL res -2256 -144 R0
SYMATTR InstName R36
SYMATTR Value 47k
SYMBOL polcap -2096 -128 R0
WINDOW 3 24 64 Left 2
SYMATTR Value 47µ
SYMATTR InstName C24
SYMATTR Description Capacitor
SYMATTR Type cap
SYMATTR SpiceLine V=16 Irms=85m Rser=1.8 Lser=0 mfg="Nichicon" pn="UPR1C470MAH" type="Al electrolytic"
SYMBOL cap -1840 496 R90
WINDOW 0 0 32 VBottom 2
WINDOW 3 32 32 VTop 2
SYMATTR InstName C1
SYMATTR Value 47n
SYMBOL voltage -2128 560 R0
WINDOW 123 35 37 Left 2
WINDOW 39 0 0 Left 2
WINDOW 3 -59 234 Left 2
WINDOW 0 9 3 Left 2
SYMATTR Value2 AC 1
SYMATTR Value SINE(0 2 40 0.1 10)
SYMATTR InstName S1
SYMBOL EXTRA\\AudioOpamp\\TI\\TL071_TI -1424 496 R0
SYMATTR InstName U3
SYMBOL Opamps\\LT1058 -624 448 R0
SYMATTR InstName U5
SYMBOL res -1664 544 R0
SYMATTR InstName R1
SYMATTR Value 1Meg
SYMBOL res -576 304 R90
WINDOW 0 0 56 VBottom 2
WINDOW 3 32 56 VTop 2
SYMATTR InstName R5
SYMATTR Value 1k
SYMBOL diode -1376 -208 R90
WINDOW 0 0 32 VBottom 2
WINDOW 3 32 32 VTop 2
SYMATTR InstName D1
SYMATTR Value 1N4148
SYMBOL diode -1440 -256 R270
WINDOW 0 32 32 VTop 2
WINDOW 3 0 32 VBottom 2
SYMATTR InstName D2
SYMATTR Value 1N4148
SYMBOL res -1696 496 R90
WINDOW 0 0 56 VBottom 2
WINDOW 3 32 56 VTop 2
SYMATTR InstName R14
SYMATTR Value 1k
SYMBOL cap -2096 -304 R0
SYMATTR InstName C4
SYMATTR Value 100k
SYMBOL Misc\\battery -2400 -240 R0
WINDOW 123 0 0 Left 2
WINDOW 39 0 0 Left 2
SYMATTR InstName V1
SYMATTR Value 9
SYMBOL pot -1408 208 R180
SYMATTR InstName U1
SYMATTR Value2 W={W}
TEXT -2192 232 Left 2 !;tran 1.5s
TEXT -2192 280 Left 2 !.ac oct 500 10 10000
TEXT -2184 192 Left 2 !.wave C:\\BassEQ.wav 16 44.1K V(OUTLINE)
TEXT -208 600 Left 2 ;LEVEL
TEXT -1200 -88 Left 2 ;40Hz
TEXT -1232 160 Left 2 !.step param W 0 1 0.2
