Version 4
SHEET 1 2180 692
WIRE 256 -320 160 -320
WIRE 384 -320 256 -320
WIRE 640 -320 544 -320
WIRE 256 -288 256 -320
WIRE 640 -288 640 -320
WIRE 160 -192 160 -320
WIRE 256 -192 256 -208
WIRE 352 -192 256 -192
WIRE 544 -192 544 -320
WIRE 640 -192 640 -208
WIRE 736 -192 640 -192
WIRE 256 -176 256 -192
WIRE 640 -176 640 -192
WIRE 976 -112 944 -112
WIRE 1088 -112 1056 -112
WIRE 464 -16 464 -80
WIRE 944 -16 944 -112
WIRE 992 -16 944 -16
WIRE 1088 -16 1088 -112
WIRE 1088 -16 1056 -16
WIRE 1712 16 1712 -80
WIRE 1744 16 1712 16
WIRE 1856 16 1856 -80
WIRE 1856 16 1824 16
WIRE 176 32 112 32
WIRE 272 32 256 32
WIRE 352 32 336 32
WIRE 400 32 352 32
WIRE 352 64 352 32
WIRE 464 96 464 80
WIRE 560 96 464 96
WIRE 640 96 624 96
WIRE 704 96 640 96
WIRE 864 96 784 96
WIRE 944 96 944 -16
WIRE 944 96 864 96
WIRE 992 96 944 96
WIRE 464 112 464 96
WIRE 1088 112 1088 -16
WIRE 1088 112 1056 112
WIRE 1168 112 1088 112
WIRE 1280 112 1248 112
WIRE 1408 112 1280 112
WIRE 1600 112 1488 112
WIRE 1712 112 1712 16
WIRE 1712 112 1600 112
WIRE 1760 112 1712 112
WIRE 1856 112 1856 16
WIRE 1856 112 1824 112
WIRE 992 128 928 128
WIRE 112 176 112 32
WIRE 640 192 640 96
WIRE 656 192 640 192
WIRE 752 192 720 192
WIRE 864 192 864 96
WIRE 864 192 832 192
WIRE 1280 192 1280 112
WIRE 1248 224 1216 224
WIRE 1712 224 1712 112
WIRE 1760 224 1712 224
WIRE 1856 240 1856 112
WIRE 1856 240 1824 240
WIRE 1888 240 1856 240
WIRE 1984 240 1952 240
WIRE 2096 240 2064 240
WIRE 2160 240 2096 240
WIRE 928 256 928 128
WIRE 1760 256 1696 256
WIRE 2096 272 2096 240
WIRE 1072 320 992 320
WIRE 1168 320 1136 320
WIRE 1280 320 1280 256
WIRE 1280 320 1248 320
WIRE 1408 320 1280 320
WIRE 1600 320 1600 112
WIRE 1600 320 1488 320
WIRE 992 352 992 320
WIRE 1696 384 1696 256
FLAG 112 256 0
FLAG 160 -112 0
FLAG 256 -96 0
FLAG 384 -320 V+
FLAG 352 -192 Vref
FLAG 1024 80 V+
FLAG 928 256 Vref
FLAG 1024 144 0
FLAG 1792 208 V+
FLAG 1696 384 Vref
FLAG 1792 272 0
FLAG 464 -80 V+
FLAG 464 192 0
FLAG 352 144 Vref
FLAG 2096 352 0
FLAG 544 -112 0
FLAG 640 -96 0
FLAG 736 -192 PTVref
FLAG 992 432 0
FLAG 1216 224 Vref
SYMBOL EXTRA\\AudioOpamp\\TI\\TL072_TI 1024 112 R0
SYMATTR InstName U1
SYMBOL voltage 160 -208 R0
WINDOW 123 0 0 Left 2
WINDOW 39 0 0 Left 2
SYMATTR InstName V2
SYMATTR Value 9
SYMBOL res 240 -304 R0
SYMATTR InstName R3
SYMATTR Value 10k
SYMBOL res 240 -192 R0
SYMATTR InstName R4
SYMATTR Value 10k
SYMBOL cap 1056 -32 R90
WINDOW 0 0 32 VBottom 2
WINDOW 3 32 32 VTop 2
SYMATTR InstName C2
SYMATTR Value 47p
SYMBOL res 1072 -128 R90
WINDOW 0 0 56 VBottom 2
WINDOW 3 32 56 VTop 2
SYMATTR InstName R6
SYMATTR Value 33k
SYMBOL EXTRA\\AudioOpamp\\TI\\TL072_TI 1792 240 R0
SYMATTR InstName U2
SYMBOL cap 1824 96 R90
WINDOW 0 0 32 VBottom 2
WINDOW 3 32 32 VTop 2
SYMATTR InstName C3
SYMATTR Value 47p
SYMBOL res 1840 0 R90
WINDOW 0 0 56 VBottom 2
WINDOW 3 32 56 VTop 2
SYMATTR InstName R9
SYMATTR Value 47k
SYMBOL cap 1952 224 R90
WINDOW 0 0 32 VBottom 2
WINDOW 3 32 32 VTop 2
SYMATTR InstName C4
SYMATTR Value 1µ
SYMBOL res 272 16 R90
WINDOW 0 0 56 VBottom 2
WINDOW 3 32 56 VTop 2
SYMATTR InstName R1
SYMATTR Value 10k
SYMBOL cap 336 16 R90
WINDOW 0 0 32 VBottom 2
WINDOW 3 32 32 VTop 2
SYMATTR InstName C1
SYMATTR Value 47n
SYMBOL res 336 48 R0
SYMATTR InstName R2
SYMATTR Value 470k
SYMBOL npn 400 -16 R0
SYMATTR InstName Q1
SYMATTR Value 2N3904
SYMBOL res 448 96 R0
SYMATTR InstName R10
SYMATTR Value 10k
SYMBOL cap 624 80 R90
WINDOW 0 0 32 VBottom 2
WINDOW 3 32 32 VTop 2
SYMATTR InstName C5
SYMATTR Value 1µ
SYMBOL res 800 80 R90
WINDOW 0 0 56 VBottom 2
WINDOW 3 32 56 VTop 2
SYMATTR InstName R11
SYMATTR Value 47k
SYMBOL cap 720 176 R90
WINDOW 0 0 32 VBottom 2
WINDOW 3 32 32 VTop 2
SYMATTR InstName C6
SYMATTR Value 4.7n
SYMBOL res 848 176 R90
WINDOW 0 0 56 VBottom 2
WINDOW 3 32 56 VTop 2
SYMATTR InstName R12
SYMATTR Value 10k
SYMBOL res 1808 -96 R90
WINDOW 0 0 56 VBottom 2
WINDOW 3 32 56 VTop 2
SYMATTR InstName R5
SYMATTR Value 10k
SYMBOL cap 1856 -96 R90
WINDOW 0 0 32 VBottom 2
WINDOW 3 32 32 VTop 2
SYMATTR InstName C7
SYMATTR Value 4.7n
SYMBOL res 2080 256 R0
SYMATTR InstName R13
SYMATTR Value 100k
SYMBOL voltage 544 -208 R0
WINDOW 123 0 0 Left 2
WINDOW 39 0 0 Left 2
SYMATTR InstName V3
SYMATTR Value 5
SYMBOL res 624 -304 R0
SYMATTR InstName R17
SYMATTR Value 10k
SYMBOL res 624 -192 R0
SYMATTR InstName R18
SYMATTR Value 10k
SYMBOL res 2080 224 R90
WINDOW 0 0 56 VBottom 2
WINDOW 3 32 56 VTop 2
SYMATTR InstName R19
SYMATTR Value 51
SYMBOL voltage 992 336 R0
WINDOW 123 24 124 Left 2
WINDOW 39 0 0 Left 2
SYMATTR Value2 AC 1
SYMATTR InstName V1
SYMATTR Value SINE(0 1 666)
SYMBOL voltage 112 160 R0
WINDOW 123 24 124 Left 2
WINDOW 39 0 0 Left 2
SYMATTR Value2 AC 1
SYMATTR InstName V4
SYMATTR Value SINE(0 1 1000)
SYMBOL pot 1296 192 M0
SYMATTR InstName U3
SYMATTR Value2 W={W}
SYMBOL res 1264 96 R90
WINDOW 0 0 56 VBottom 2
WINDOW 3 32 56 VTop 2
SYMATTR InstName R7
SYMATTR Value 12k
SYMBOL res 1264 304 R90
WINDOW 0 0 56 VBottom 2
WINDOW 3 32 56 VTop 2
SYMATTR InstName R8
SYMATTR Value 12k
SYMBOL cap 1136 304 R90
WINDOW 0 0 32 VBottom 2
WINDOW 3 32 32 VTop 2
SYMATTR InstName C8
SYMATTR Value 10µ
SYMBOL res 1504 96 R90
WINDOW 0 0 56 VBottom 2
WINDOW 3 32 56 VTop 2
SYMATTR InstName R14
SYMATTR Value 9.1k
SYMBOL res 1504 304 R90
WINDOW 0 0 56 VBottom 2
WINDOW 3 32 56 VTop 2
SYMATTR InstName R15
SYMATTR Value 9.1k
TEXT 552 296 Left 2 !;ac dec 1000 10 10000
TEXT 552 328 Left 2 !.tran 5m
TEXT 648 -56 Left 2 !.step param W 0 1 0.2
