Version 4
SHEET 1 2788 680
WIRE 2032 -416 2032 -464
WIRE 2032 -416 1920 -416
WIRE 2144 -416 2032 -416
WIRE 1920 -400 1920 -416
WIRE 2144 -400 2144 -416
WIRE 2032 -384 2032 -416
WIRE 1232 -352 1152 -352
WIRE 1152 -336 1152 -352
WIRE 800 -304 736 -304
WIRE 928 -304 880 -304
WIRE 976 -304 928 -304
WIRE 1120 -304 1056 -304
WIRE 1232 -304 1232 -352
WIRE 1232 -304 1184 -304
WIRE 2144 -304 2144 -320
WIRE 2240 -304 2144 -304
WIRE 2304 -304 2240 -304
WIRE 736 -288 736 -304
WIRE 2144 -288 2144 -304
WIRE 2240 -288 2240 -304
WIRE 928 -208 928 -304
WIRE 1056 -208 928 -208
WIRE 1232 -208 1232 -304
WIRE 1232 -208 1120 -208
WIRE 1824 -64 1680 -64
WIRE 928 -32 928 -208
WIRE 1056 -32 928 -32
WIRE 1232 -32 1232 -208
WIRE 1232 -32 1120 -32
WIRE 1424 0 1360 0
WIRE 1616 0 1504 0
WIRE 1616 16 1616 0
WIRE 1680 16 1680 -64
WIRE 1712 16 1680 16
WIRE 1824 32 1824 -64
WIRE 1824 32 1776 32
WIRE 1856 32 1824 32
WIRE 1968 32 1920 32
WIRE 2080 32 2048 32
WIRE 1680 48 1648 48
WIRE 1712 48 1680 48
WIRE 928 80 928 -32
WIRE 976 80 928 80
WIRE 1232 96 1232 -32
WIRE 1232 96 1040 96
WIRE 1264 96 1232 96
WIRE 1360 96 1360 0
WIRE 1360 96 1344 96
WIRE 1376 96 1360 96
WIRE 1456 96 1440 96
WIRE 1472 96 1456 96
WIRE 1616 96 1616 80
WIRE 1616 96 1536 96
WIRE 1680 96 1680 48
WIRE 2080 96 2080 32
WIRE 704 112 576 112
WIRE 736 112 704 112
WIRE 832 112 800 112
WIRE 896 112 832 112
WIRE 976 112 896 112
WIRE 2208 128 2112 128
WIRE 704 144 704 112
WIRE 896 144 896 112
WIRE 1456 144 1456 96
WIRE 832 160 832 112
WIRE 576 192 576 112
WIRE 2080 192 2080 160
FLAG 576 272 0
FLAG 2240 -224 0
FLAG 2144 -208 0
FLAG 1920 -336 0
FLAG 2032 -304 0
FLAG 2032 -464 V+
FLAG 2304 -304 Vref
FLAG 1008 128 0
FLAG 1008 64 V+
FLAG 2080 192 0
FLAG 896 224 Vref
FLAG 736 -224 0
FLAG 704 224 0
FLAG 832 224 0
FLAG 1456 224 0
FLAG 1744 64 0
FLAG 1744 0 V+
FLAG 1680 160 0
SYMBOL voltage 576 176 R0
WINDOW 123 24 124 Left 2
WINDOW 39 0 0 Left 2
SYMATTR Value2 AC 1
SYMATTR InstName V1
SYMATTR Value SINE(0 1 1000)
SYMBOL EXTRA\\AudioOpamp\\TI\\TL072_TI 1008 96 R0
SYMATTR InstName U1
SYMBOL res 1072 -320 R90
WINDOW 0 0 56 VBottom 2
WINDOW 3 32 56 VTop 2
SYMATTR InstName R6
SYMATTR Value 4.7k
SYMBOL pot 2064 96 R0
WINDOW 3 -80 23 Left 2
WINDOW 123 -71 57 Left 2
SYMATTR Value2 W=0.5
SYMATTR InstName U8
SYMBOL voltage 2032 -400 R0
WINDOW 123 0 0 Left 2
WINDOW 39 0 0 Left 2
SYMATTR InstName V2
SYMATTR Value 9
SYMBOL res 2128 -416 R0
SYMATTR InstName R23
SYMATTR Value 39k
SYMBOL res 2128 -304 R0
SYMATTR InstName R24
SYMATTR Value 47k
SYMBOL cap 2224 -288 R0
SYMATTR InstName C15
SYMATTR Value 220µ
SYMBOL cap 1904 -400 R0
SYMATTR InstName C16
SYMATTR Value 220µ
SYMBOL res 880 128 R0
SYMATTR InstName R5
SYMATTR Value 470k
SYMBOL cap 800 96 R90
WINDOW 0 0 32 VBottom 2
WINDOW 3 32 32 VTop 2
SYMATTR InstName C2
SYMATTR Value 22n
SYMBOL res 896 -320 R90
WINDOW 0 0 56 VBottom 2
WINDOW 3 32 56 VTop 2
SYMATTR InstName R9
SYMATTR Value 470
SYMBOL cap 752 -224 R180
WINDOW 0 24 56 Left 2
WINDOW 3 24 8 Left 2
SYMATTR InstName C6
SYMATTR Value 1µ
SYMBOL cap 1920 16 R90
WINDOW 0 0 32 VBottom 2
WINDOW 3 32 32 VTop 2
SYMATTR InstName C7
SYMATTR Value 1µ
SYMBOL res 2064 16 R90
WINDOW 0 0 56 VBottom 2
WINDOW 3 32 56 VTop 2
SYMATTR InstName R10
SYMATTR Value 4.7k
SYMBOL res 688 128 R0
SYMATTR InstName R1
SYMATTR Value 2.2Meg
SYMBOL cap 816 160 R0
SYMATTR InstName C1
SYMATTR Value 220p
SYMBOL LED 1120 -224 R90
WINDOW 0 0 32 VBottom 2
WINDOW 3 72 32 VTop 2
SYMATTR InstName D1
SYMATTR Value LED_BLUE
SYMBOL LED 1056 -16 R270
WINDOW 0 72 32 VTop 2
WINDOW 3 0 32 VBottom 2
SYMATTR InstName D2
SYMATTR Value LED_RED
SYMBOL pot 1184 -288 M270
WINDOW 3 -93 23 Left 2
WINDOW 123 -71 57 Left 2
SYMATTR Value R=500k
SYMATTR Value2 W=0.5
SYMATTR InstName U2
SYMATTR SpiceModel pot_log
SYMBOL res 1360 80 R90
WINDOW 0 0 56 VBottom 2
WINDOW 3 32 56 VTop 2
SYMATTR InstName R2
SYMATTR Value 1k
SYMBOL cap 1440 80 R90
WINDOW 0 0 32 VBottom 2
WINDOW 3 32 32 VTop 2
SYMATTR InstName C3
SYMATTR Value 10n
SYMBOL cap 1536 80 R90
WINDOW 0 0 32 VBottom 2
WINDOW 3 32 32 VTop 2
SYMATTR InstName C4
SYMATTR Value 10n
SYMBOL res 1472 240 R180
WINDOW 0 36 76 Left 2
WINDOW 3 36 40 Left 2
SYMATTR InstName R3
SYMATTR Value 7.5k
SYMBOL pot 1600 80 M180
WINDOW 3 -93 23 Left 2
WINDOW 123 -71 57 Left 2
SYMATTR Value R=50k
SYMATTR Value2 W=0
SYMATTR InstName U3
SYMBOL EXTRA\\AudioOpamp\\TI\\TL072_TI 1744 32 R0
SYMATTR InstName U4
SYMBOL res 1520 -16 R90
WINDOW 0 0 56 VBottom 2
WINDOW 3 32 56 VTop 2
SYMATTR InstName R4
SYMATTR Value 47k
SYMBOL cap 1696 160 R180
WINDOW 0 -33 60 Left 2
WINDOW 3 -48 11 Left 2
SYMATTR InstName C5
SYMATTR Value 1.5n
TEXT 1288 -488 Left 2 !;tran 20m
TEXT 1288 -448 Left 2 !.ac dec 500 10 10000
TEXT 1296 -360 Left 2 !;.step param W 0 1 0.2
