Version 4
SHEET 1 2260 864
WIRE 16 -48 -64 -48
WIRE 112 -48 16 -48
WIRE 176 -48 112 -48
WIRE -64 -32 -64 -48
WIRE 112 -32 112 -48
WIRE 752 32 352 32
WIRE 1232 32 832 32
WIRE 16 48 16 -48
WIRE 112 64 112 48
WIRE 192 64 112 64
WIRE 240 64 192 64
WIRE 112 80 112 64
WIRE 192 80 192 64
WIRE 352 96 352 32
WIRE 384 96 352 96
WIRE 480 96 448 96
WIRE 352 192 352 96
WIRE 384 192 352 192
WIRE 480 192 480 96
WIRE 480 192 464 192
WIRE 752 192 720 192
WIRE 848 192 816 192
WIRE 1136 208 1104 208
WIRE 1232 208 1232 32
WIRE 1232 208 1200 208
WIRE 560 256 512 256
WIRE 560 272 560 256
WIRE 944 272 896 272
WIRE 352 288 352 192
WIRE 368 288 352 288
WIRE 944 288 944 272
WIRE 480 304 480 192
WIRE 480 304 432 304
WIRE 512 304 512 256
WIRE 512 304 480 304
WIRE 528 304 512 304
WIRE 624 304 592 304
WIRE 720 304 720 192
WIRE 720 304 704 304
WIRE 752 304 720 304
WIRE 144 320 64 320
WIRE 192 320 144 320
WIRE 352 320 336 320
WIRE 368 320 352 320
WIRE 848 320 848 192
WIRE 848 320 816 320
WIRE 896 320 896 272
WIRE 896 320 848 320
WIRE 912 320 896 320
WIRE 1008 320 976 320
WIRE 1104 320 1104 208
WIRE 1104 320 1088 320
WIRE 1136 320 1104 320
WIRE 752 336 704 336
WIRE 1232 336 1232 208
WIRE 1232 336 1200 336
WIRE 144 352 144 320
WIRE 1136 352 1088 352
WIRE 64 368 64 320
WIRE 704 368 704 336
WIRE 1088 384 1088 352
WIRE 352 464 352 320
WIRE 576 464 352 464
WIRE 848 464 848 320
WIRE 848 464 656 464
WIRE 352 512 352 464
WIRE 1008 544 864 544
WIRE 608 592 560 592
WIRE 560 608 560 592
WIRE 864 608 864 544
WIRE 896 608 864 608
WIRE 1008 624 1008 544
WIRE 1008 624 960 624
WIRE 1040 624 1008 624
WIRE 1184 624 1104 624
WIRE 480 640 480 304
WIRE 528 640 480 640
WIRE 608 640 608 592
WIRE 608 640 592 640
WIRE 624 640 608 640
WIRE 736 640 704 640
WIRE 768 640 736 640
WIRE 864 640 832 640
WIRE 896 640 864 640
WIRE 864 656 864 640
WIRE 736 672 736 640
FLAG 64 448 0
FLAG 16 128 0
FLAG 112 160 0
FLAG -64 32 0
FLAG 192 144 0
FLAG 176 -48 V+
FLAG 240 64 Vref
FLAG 144 432 0
FLAG 400 272 V+
FLAG 400 336 0
FLAG 352 592 Vref
FLAG 784 288 V+
FLAG 784 352 0
FLAG 704 368 Vref
FLAG 1168 304 V+
FLAG 1168 368 0
FLAG 1088 384 Vref
FLAG 736 736 0
FLAG 864 736 Vref
FLAG 928 592 V+
FLAG 928 656 0
SYMBOL voltage 64 352 R0
WINDOW 0 -83 7 Left 2
WINDOW 3 -240 46 Left 2
WINDOW 123 -110 82 Left 2
WINDOW 39 0 0 Left 2
SYMATTR InstName V1
SYMATTR Value SINE(0 1 1000)
SYMATTR Value2 AC 1
SYMBOL voltage 16 32 R0
WINDOW 123 0 0 Left 2
WINDOW 39 0 0 Left 2
SYMATTR InstName V2
SYMATTR Value 9
SYMBOL res 96 -48 R0
SYMATTR InstName R1
SYMATTR Value 10k
SYMBOL res 96 64 R0
SYMATTR InstName R2
SYMATTR Value 10k
SYMBOL cap 176 80 R0
SYMATTR InstName C1
SYMATTR Value 100µ
SYMBOL cap -80 -32 R0
SYMATTR InstName C2
SYMATTR Value 100µ
SYMBOL EXTRA\\AudioOpamp\\TI\\TL072_TI 400 304 R0
SYMATTR InstName U1
SYMBOL res 128 336 R0
SYMATTR InstName R3
SYMATTR Value 2Meg
SYMBOL cap 256 304 R90
WINDOW 0 0 32 VBottom 2
WINDOW 3 32 32 VTop 2
SYMATTR InstName C3
SYMATTR Value 10µ
SYMBOL res 352 304 R90
WINDOW 0 0 56 VBottom 2
WINDOW 3 32 56 VTop 2
SYMATTR InstName R4
SYMATTR Value 10k
SYMBOL res 336 496 R0
SYMATTR InstName R5
SYMATTR Value 47k
SYMBOL res 480 176 R90
WINDOW 0 0 56 VBottom 2
WINDOW 3 32 56 VTop 2
SYMATTR InstName R6
SYMATTR Value 10k
SYMBOL cap 448 80 R90
WINDOW 0 0 32 VBottom 2
WINDOW 3 32 32 VTop 2
SYMATTR InstName C4
SYMATTR Value 150p
SYMBOL pot 528 320 R270
SYMATTR InstName U2
SYMATTR Value R=50k
SYMATTR Value2 W=1
SYMATTR SpiceModel pot_log
SYMBOL EXTRA\\AudioOpamp\\TI\\TL072_TI 784 320 R0
SYMATTR InstName U3
SYMBOL res 720 288 R90
WINDOW 0 0 56 VBottom 2
WINDOW 3 32 56 VTop 2
SYMATTR InstName R7
SYMATTR Value 4.7k
SYMBOL cap 816 176 R90
WINDOW 0 0 32 VBottom 2
WINDOW 3 32 32 VTop 2
SYMATTR InstName C5
SYMATTR Value 33n
SYMBOL res 672 448 R90
WINDOW 0 0 56 VBottom 2
WINDOW 3 32 56 VTop 2
SYMATTR InstName R8
SYMATTR Value 10k
SYMBOL pot 912 336 R270
SYMATTR InstName U4
SYMATTR Value R=50k
SYMATTR Value2 W=1
SYMATTR SpiceModel pot_log
SYMBOL EXTRA\\AudioOpamp\\TI\\TL072_TI 1168 336 R0
SYMATTR InstName U5
SYMBOL res 1104 304 R90
WINDOW 0 0 56 VBottom 2
WINDOW 3 32 56 VTop 2
SYMATTR InstName R9
SYMATTR Value 4.7k
SYMBOL cap 1200 192 R90
WINDOW 0 0 32 VBottom 2
WINDOW 3 32 32 VTop 2
SYMATTR InstName C6
SYMATTR Value 33n
SYMBOL res 848 16 R90
WINDOW 0 0 56 VBottom 2
WINDOW 3 32 56 VTop 2
SYMATTR InstName R10
SYMATTR Value 10k
SYMBOL pot 528 656 R270
SYMATTR InstName U6
SYMATTR Value R=250k
SYMATTR Value2 W=1
SYMBOL res 720 624 R90
WINDOW 0 0 56 VBottom 2
WINDOW 3 32 56 VTop 2
SYMATTR InstName R11
SYMATTR Value 1k
SYMBOL cap 720 672 R0
SYMATTR InstName C7
SYMATTR Value 1.2n
SYMBOL cap 832 624 R90
WINDOW 0 0 32 VBottom 2
WINDOW 3 32 32 VTop 2
SYMATTR InstName C8
SYMATTR Value 33n
SYMBOL res 848 640 R0
SYMATTR InstName R12
SYMATTR Value 1Meg
SYMBOL EXTRA\\AudioOpamp\\TI\\TL072_TI 928 624 R0
SYMATTR InstName U7
SYMBOL cap 1104 608 R90
WINDOW 0 0 32 VBottom 2
WINDOW 3 32 32 VTop 2
SYMATTR InstName C9
SYMATTR Value 10µ
TEXT -16 584 Left 2 !.ac dec 1000 10 20000
TEXT -16 632 Left 2 !;tran 30m
TEXT -16 688 Left 2 !;.step param W 0 1 0.2
