Version 4
SHEET 1 2260 864
WIRE 1216 -368 976 -368
WIRE 1584 -368 1296 -368
WIRE 176 -352 96 -352
WIRE 272 -352 176 -352
WIRE 336 -352 272 -352
WIRE 96 -336 96 -352
WIRE 272 -336 272 -352
WIRE 976 -320 976 -368
WIRE 1056 -320 976 -320
WIRE 1200 -320 1136 -320
WIRE 1440 -288 1424 -288
WIRE 1584 -288 1584 -368
WIRE 1584 -288 1568 -288
WIRE 176 -256 176 -352
WIRE 272 -240 272 -256
WIRE 352 -240 272 -240
WIRE 400 -240 352 -240
WIRE 272 -224 272 -240
WIRE 352 -224 352 -240
WIRE 976 -208 976 -320
WIRE 1024 -208 976 -208
WIRE 1200 -192 1200 -320
WIRE 1200 -192 1088 -192
WIRE 1232 -192 1200 -192
WIRE 1312 -192 1296 -192
WIRE 1328 -192 1312 -192
WIRE 1424 -192 1424 -288
WIRE 1424 -192 1408 -192
WIRE 1440 -192 1424 -192
WIRE 976 -176 944 -176
WIRE 1024 -176 976 -176
WIRE 1584 -176 1584 -288
WIRE 1584 -176 1504 -176
WIRE 1680 -176 1584 -176
WIRE 1440 -160 1408 -160
WIRE 1680 -160 1680 -176
WIRE 1264 -144 1264 -160
WIRE 1312 -144 1312 -192
WIRE 1312 -144 1264 -144
WIRE 1808 -128 1712 -128
WIRE 1408 -96 1408 -160
WIRE 976 -80 976 -176
WIRE 1056 -80 976 -80
WIRE 1200 -80 1200 -192
WIRE 1200 -80 1120 -80
WIRE 304 32 64 32
WIRE 576 32 384 32
WIRE 1216 32 976 32
WIRE 1488 32 1296 32
WIRE 64 80 64 32
WIRE 144 80 64 80
WIRE 288 80 224 80
WIRE 976 80 976 32
WIRE 1056 80 976 80
WIRE 1200 80 1136 80
WIRE 448 176 416 176
WIRE 576 176 576 32
WIRE 576 176 512 176
WIRE 1360 176 1328 176
WIRE 1488 176 1488 32
WIRE 1488 176 1424 176
WIRE 64 192 64 80
WIRE 112 192 64 192
WIRE 976 192 976 80
WIRE 1024 192 976 192
WIRE 288 208 288 80
WIRE 288 208 176 208
WIRE 1200 208 1200 80
WIRE 1200 208 1088 208
WIRE 112 224 64 224
WIRE 1024 224 976 224
WIRE 288 256 288 208
WIRE 1200 256 1200 208
WIRE 416 288 416 176
WIRE 416 288 400 288
WIRE 448 288 416 288
WIRE 1328 288 1328 176
WIRE 1328 288 1312 288
WIRE 1360 288 1328 288
WIRE 576 304 576 176
WIRE 576 304 512 304
WIRE 672 304 576 304
WIRE 1488 304 1488 176
WIRE 1488 304 1424 304
WIRE 1584 304 1488 304
WIRE 448 320 416 320
WIRE 1360 320 1328 320
WIRE 672 336 672 304
WIRE 1584 336 1584 304
WIRE 784 368 704 368
WIRE 1696 368 1616 368
WIRE 416 400 416 320
WIRE 1328 400 1328 320
FLAG 176 -176 0
FLAG 272 -144 0
FLAG 96 -272 0
FLAG 352 -160 0
FLAG 336 -352 V+
FLAG 400 -240 Vref
FLAG 144 240 V+
FLAG 144 176 0
FLAG 64 224 Vref
FLAG 288 400 Vref
FLAG 480 272 V+
FLAG 480 336 0
FLAG 416 400 Vref
FLAG 672 400 Vref
FLAG 1056 -160 V+
FLAG 1056 -224 0
FLAG 864 -176 Vref
FLAG 1472 -208 V+
FLAG 1472 -144 0
FLAG 1408 -96 Vref
FLAG 1680 -96 Vref
FLAG 1056 240 V+
FLAG 1056 176 0
FLAG 976 224 Vref
FLAG 1200 400 Vref
FLAG 1392 272 V+
FLAG 1392 336 0
FLAG 1328 400 Vref
FLAG 1584 400 Vref
SYMBOL voltage 176 -272 R0
WINDOW 123 0 0 Left 2
WINDOW 39 0 0 Left 2
SYMATTR InstName V2
SYMATTR Value 9
SYMBOL res 256 -352 R0
SYMATTR InstName R1
SYMATTR Value 10k
SYMBOL res 256 -240 R0
SYMATTR InstName R2
SYMATTR Value 10k
SYMBOL cap 336 -224 R0
SYMATTR InstName C1
SYMATTR Value 100µ
SYMBOL cap 80 -336 R0
SYMATTR InstName C2
SYMATTR Value 100µ
SYMBOL EXTRA\\AudioOpamp\\TI\\TL072_TI 144 208 M180
SYMATTR InstName U2
SYMBOL res 240 64 R90
WINDOW 0 0 56 VBottom 2
WINDOW 3 32 56 VTop 2
SYMATTR InstName R3
SYMATTR Value 47k
SYMBOL pot 272 256 R0
SYMATTR InstName U1
SYMATTR Value R=100k
SYMATTR Value2 W=0.5
SYMBOL res 272 304 R0
SYMATTR InstName R4
SYMATTR Value 10k
SYMBOL res 416 272 R90
WINDOW 0 0 56 VBottom 2
WINDOW 3 32 56 VTop 2
SYMATTR InstName R5
SYMATTR Value 1Meg
SYMBOL EXTRA\\AudioOpamp\\TI\\TL072_TI 480 304 R0
SYMATTR InstName U3
SYMBOL cap 512 160 R90
WINDOW 0 0 32 VBottom 2
WINDOW 3 32 32 VTop 2
SYMATTR InstName C3
SYMATTR Value 100n
SYMBOL pot 656 336 R0
SYMATTR InstName U4
SYMATTR Value R=100k
SYMBOL res 400 16 R90
WINDOW 0 0 56 VBottom 2
WINDOW 3 32 56 VTop 2
SYMATTR InstName R6
SYMATTR Value 33k
SYMBOL EXTRA\\AudioOpamp\\TI\\TL072_TI 1056 -192 M180
SYMATTR InstName U5
SYMBOL res 1152 -336 R90
WINDOW 0 0 56 VBottom 2
WINDOW 3 32 56 VTop 2
SYMATTR InstName R7
SYMATTR Value 47k
SYMBOL res 1312 -384 R90
WINDOW 0 0 56 VBottom 2
WINDOW 3 32 56 VTop 2
SYMATTR InstName R10
SYMATTR Value 33k
SYMBOL res 960 -192 R90
WINDOW 0 0 56 VBottom 2
WINDOW 3 32 56 VTop 2
SYMATTR InstName R11
SYMATTR Value 100k
SYMBOL cap 1120 -96 R90
WINDOW 0 0 32 VBottom 2
WINDOW 3 32 32 VTop 2
SYMATTR InstName C4
SYMATTR Value 10n
SYMBOL res 1424 -208 R90
WINDOW 0 0 56 VBottom 2
WINDOW 3 32 56 VTop 2
SYMATTR InstName R8
SYMATTR Value 10k
SYMBOL EXTRA\\AudioOpamp\\TI\\TL072_TI 1472 -176 R0
SYMATTR InstName U7
SYMBOL cap 1504 -304 R90
WINDOW 0 0 32 VBottom 2
WINDOW 3 32 32 VTop 2
SYMATTR InstName C5
SYMATTR Value 10µ
SYMBOL cap 1568 -304 R90
WINDOW 0 0 32 VBottom 2
WINDOW 3 32 32 VTop 2
SYMATTR InstName C6
SYMATTR Value 10µ
SYMBOL pot 1664 -160 R0
SYMATTR InstName U8
SYMATTR Value R=100k
SYMBOL pot 1296 -208 R90
SYMATTR InstName U6
SYMATTR Value R=250k
SYMATTR Value2 W=0.5
SYMATTR SpiceModel pot_log
SYMBOL EXTRA\\AudioOpamp\\TI\\TL072_TI 1056 208 M180
SYMATTR InstName U9
SYMBOL res 1152 64 R90
WINDOW 0 0 56 VBottom 2
WINDOW 3 32 56 VTop 2
SYMATTR InstName R9
SYMATTR Value 51k
SYMBOL pot 1184 256 R0
SYMATTR InstName U10
SYMATTR Value R=100k
SYMATTR Value2 W=0.5
SYMBOL res 1184 304 R0
SYMATTR InstName R12
SYMATTR Value 10k
SYMBOL res 1328 272 R90
WINDOW 0 0 56 VBottom 2
WINDOW 3 32 56 VTop 2
SYMATTR InstName R13
SYMATTR Value 270k
SYMBOL EXTRA\\AudioOpamp\\TI\\TL072_TI 1392 304 R0
SYMATTR InstName U11
SYMBOL cap 1424 160 R90
WINDOW 0 0 32 VBottom 2
WINDOW 3 32 32 VTop 2
SYMATTR InstName C7
SYMATTR Value 150n
SYMBOL pot 1568 336 R0
SYMATTR InstName U12
SYMATTR Value R=100k
SYMBOL res 1312 16 R90
WINDOW 0 0 56 VBottom 2
WINDOW 3 32 56 VTop 2
SYMATTR InstName R14
SYMATTR Value 39k
TEXT 480 -304 Left 2 !;ac dec 1000 10 20000
TEXT 480 -256 Left 2 !.tran 0 10s 5s
TEXT 480 -216 Left 2 !;.step param W 0 1 0.2
