Version 4
SHEET 1 2848 680
WIRE 1328 -96 1232 -96
WIRE 1408 -96 1328 -96
WIRE 1520 -96 1488 -96
WIRE 576 -80 544 -80
WIRE 864 -80 816 -80
WIRE 1520 -64 1520 -96
WIRE 592 0 592 -32
WIRE 704 0 592 0
WIRE 768 0 704 0
WIRE 880 0 880 -32
WIRE 928 0 880 0
WIRE 592 32 592 0
WIRE 880 32 880 0
WIRE 1280 64 1232 64
WIRE 1408 64 1280 64
WIRE 1520 64 1520 0
WIRE 1520 64 1488 64
WIRE 704 96 704 64
WIRE 208 112 144 112
WIRE 400 112 272 112
WIRE 1536 112 1536 32
WIRE 1664 112 1536 112
WIRE 1712 112 1664 112
WIRE 1744 112 1712 112
WIRE 1856 112 1824 112
WIRE 1712 128 1712 112
WIRE 544 144 544 -80
WIRE 592 144 592 112
WIRE 592 144 544 144
WIRE 816 144 816 -80
WIRE 880 144 880 112
WIRE 880 144 816 144
WIRE 144 160 144 112
WIRE 592 160 592 144
WIRE 880 160 880 144
WIRE 1328 160 1328 -96
WIRE 1408 160 1328 160
WIRE 1520 160 1488 160
WIRE 1280 192 1280 64
WIRE 1280 192 1200 192
WIRE 1328 192 1328 160
WIRE 1520 192 1520 160
WIRE 400 208 400 192
WIRE 480 208 400 208
WIRE 544 208 480 208
WIRE 704 208 704 176
WIRE 752 208 704 208
WIRE 832 208 752 208
WIRE 400 224 400 208
WIRE 480 224 480 208
WIRE 704 240 704 208
WIRE 1952 256 1872 256
WIRE 2000 256 1952 256
WIRE 2064 256 2000 256
WIRE 2160 256 2064 256
WIRE 2320 256 2320 160
WIRE 2320 256 2240 256
WIRE 2384 256 2320 256
WIRE 2448 256 2384 256
WIRE 2592 256 2528 256
WIRE 2656 256 2592 256
WIRE 2768 256 2656 256
WIRE 1328 272 1200 272
WIRE 2320 272 2320 256
WIRE 752 288 752 208
WIRE 752 288 736 288
WIRE 1280 320 1280 192
WIRE 1408 320 1280 320
WIRE 1520 320 1520 256
WIRE 1520 320 1488 320
WIRE 1536 320 1536 288
WIRE 1664 320 1664 112
WIRE 1664 320 1536 320
WIRE 1952 336 1952 256
WIRE 1952 336 1872 336
WIRE 2384 336 2320 336
WIRE 2000 352 2000 320
WIRE 2064 352 2064 336
WIRE 2064 352 2000 352
WIRE 2384 352 2384 336
WIRE 2592 352 2592 320
WIRE 2656 352 2656 336
WIRE 2656 352 2592 352
WIRE 560 368 560 256
WIRE 848 368 848 256
WIRE 848 368 560 368
WIRE 2000 368 2000 352
WIRE 2064 368 2064 352
WIRE 2320 368 2320 336
WIRE 2592 368 2592 352
WIRE 2656 368 2656 352
WIRE 1056 384 960 384
WIRE 1200 384 1200 272
WIRE 1200 384 1056 384
WIRE 560 400 560 368
WIRE 1280 432 1232 432
WIRE 1344 432 1280 432
WIRE 2384 432 2320 432
WIRE 2000 448 2000 432
WIRE 2064 448 2000 448
WIRE 2592 448 2592 432
WIRE 2656 448 2592 448
WIRE 2000 480 2000 448
WIRE 2320 480 2320 432
WIRE 2592 480 2592 448
WIRE 1200 496 1200 480
WIRE 1232 496 1232 432
WIRE 1232 496 1200 496
WIRE 1344 544 1344 496
FLAG 144 240 0
FLAG 400 304 0
FLAG 2128 96 0
FLAG 2128 16 V+
FLAG 704 336 0
FLAG 480 304 0
FLAG 768 -64 B
FLAG 992 0 A
FLAG 560 480 0
FLAG 1280 496 0
FLAG 1472 208 0
FLAG 1472 -48 0
FLAG 1232 64 A
FLAG 1232 -96 B
FLAG 960 464 0
FLAG 1056 448 0
FLAG 1712 208 0
FLAG 2000 480 0
FLAG 1872 336 Anode
FLAG 1600 -16 V+
FLAG 1600 240 V+
FLAG 624 -128 Anode
FLAG 912 -128 Anode
FLAG 1520 544 0
FLAG 1520 464 V64
FLAG 1344 544 V64
FLAG 1856 112 GU19_exit
FLAG 1872 256 GU19_exit
FLAG 2320 480 0
FLAG 2320 160 Exit_trans_middle_point
FLAG 2592 480 0
FLAG 2768 256 V+
SYMBOL voltage 144 144 R0
WINDOW 123 24 124 Left 2
WINDOW 39 0 0 Left 2
SYMATTR Value2 AC 1
SYMATTR InstName V1
SYMATTR Value SINE(0 200m 800)
SYMBOL cap 272 96 R90
WINDOW 0 0 32 VBottom 2
WINDOW 3 32 32 VTop 2
SYMATTR InstName C1
SYMATTR Value 1.5
SYMBOL Tubes\\triode 592 208 R0
SYMATTR InstName U1
SYMBOL res 384 96 R0
SYMATTR InstName R1
SYMATTR Value 50k
SYMBOL res 384 208 R0
SYMATTR InstName R2
SYMATTR Value 50k
SYMBOL res 464 208 R0
SYMATTR InstName R3
SYMATTR Value 300k
SYMBOL res 544 384 R0
SYMATTR InstName R4
SYMATTR Value 1k
SYMBOL voltage 2128 0 R0
WINDOW 123 0 0 Left 2
WINDOW 39 0 0 Left 2
SYMATTR InstName V2
SYMATTR Value 590
SYMBOL Tubes\\triode 624 -80 R0
SYMATTR InstName U2
SYMBOL res 576 16 R0
SYMATTR InstName R6
SYMATTR Value 2.4k
SYMBOL cap 720 64 R180
WINDOW 0 37 48 Left 2
WINDOW 3 -48 52 Left 2
SYMATTR InstName C3
SYMATTR Value 220n
SYMBOL res 720 192 R180
WINDOW 0 38 64 Left 2
WINDOW 3 -53 74 Left 2
SYMATTR InstName R7
SYMATTR Value 180k
SYMBOL EXTRA\\Misc\\pot 704 288 R180
SYMATTR InstName U3
SYMATTR Value R=20k
SYMATTR Value2 T=.89
SYMBOL Tubes\\triode 880 208 R0
SYMATTR InstName U4
SYMBOL Tubes\\triode 912 -80 R0
SYMATTR InstName U5
SYMBOL res 864 16 R0
SYMATTR InstName R5
SYMATTR Value 2.4k
SYMBOL cap 992 -16 R90
WINDOW 0 0 32 VBottom 2
WINDOW 3 32 32 VTop 2
SYMATTR InstName C2
SYMATTR Value 470n
SYMBOL cap 752 -64 R0
SYMATTR InstName C4
SYMATTR Value 470n
SYMBOL cap 1040 384 R0
WINDOW 0 29 21 Left 2
SYMATTR InstName C5
SYMATTR Value 47
SYMBOL EXTRA\\Misc\\pot 1200 432 R180
SYMATTR InstName U6
SYMATTR Value2 T=.05
SYMBOL cap 1264 432 R0
SYMATTR InstName C6
SYMATTR Value 47
SYMBOL diode 1328 432 R0
SYMATTR InstName D1
SYMATTR Value 1N4001
SYMBOL res 944 368 R0
SYMATTR InstName R10
SYMATTR Value 4.3k
SYMBOL Tubes\\beam_tetrode 1536 240 R90
SYMATTR InstName U7
SYMATTR SpiceModel 6P3S
SYMBOL res 1392 336 R270
WINDOW 0 32 56 VTop 2
WINDOW 3 0 56 VBottom 2
SYMATTR InstName R11
SYMATTR Value 1.8k
SYMBOL res 1392 176 R270
WINDOW 0 32 56 VTop 2
WINDOW 3 0 56 VBottom 2
SYMATTR InstName R12
SYMATTR Value 1.8k
SYMBOL Tubes\\beam_tetrode 1536 -16 R90
SYMATTR InstName U8
SYMATTR SpiceModel 6P3S
SYMBOL res 1392 80 R270
WINDOW 0 32 56 VTop 2
WINDOW 3 0 56 VBottom 2
SYMATTR InstName R13
SYMATTR Value 1.8k
SYMBOL res 1392 -80 R270
WINDOW 0 32 56 VTop 2
WINDOW 3 0 56 VBottom 2
SYMATTR InstName R14
SYMATTR Value 1.8k
SYMBOL res 1312 176 R0
SYMATTR InstName R15
SYMATTR Value 6.8k
SYMBOL res 1184 176 R0
SYMATTR InstName R16
SYMATTR Value 6.8k
SYMBOL res 1696 112 R0
SYMATTR InstName R8
SYMBOL res 1728 128 R270
WINDOW 0 32 56 VTop 2
WINDOW 3 0 56 VBottom 2
SYMATTR InstName R9
SYMATTR Value 68k
SYMBOL cap 1984 256 R0
SYMATTR InstName C7
SYMATTR Value 100
SYMBOL cap 1984 368 R0
SYMATTR InstName C8
SYMATTR Value 100
SYMBOL res 2048 240 R0
SYMATTR InstName R17
SYMATTR Value 220k
SYMBOL res 2048 352 R0
SYMATTR InstName R18
SYMATTR Value 220k
SYMBOL cap 2304 368 R0
WINDOW 0 -35 -12 Left 2
WINDOW 3 -61 14 Left 2
SYMATTR InstName C9
SYMATTR Value 220
SYMBOL cap 2304 272 R0
WINDOW 0 -45 4 Left 2
WINDOW 3 -57 42 Left 2
SYMATTR InstName C10
SYMATTR Value 220
SYMBOL res 2368 336 R0
SYMATTR InstName R19
SYMATTR Value 220k
SYMBOL res 2368 240 R0
SYMATTR InstName R20
SYMATTR Value 200k
SYMBOL voltage 1520 448 R0
WINDOW 123 0 0 Left 2
WINDOW 39 0 0 Left 2
SYMATTR InstName V3
SYMATTR Value 64
SYMBOL res 2256 240 R90
WINDOW 0 -7 92 VBottom 2
WINDOW 3 -39 37 VTop 2
SYMATTR InstName R26
SYMATTR Value 10k
SYMBOL ind 2432 272 R270
WINDOW 0 32 56 VTop 2
WINDOW 3 5 56 VBottom 2
SYMATTR InstName L1
SYMBOL cap 2576 256 R0
SYMATTR InstName C11
SYMATTR Value 100
SYMBOL cap 2576 368 R0
SYMATTR InstName C12
SYMATTR Value 100
SYMBOL res 2640 240 R0
SYMATTR InstName R21
SYMATTR Value 220k
SYMBOL res 2640 352 R0
SYMATTR InstName R22
SYMATTR Value 220k
TEXT 152 16 Left 2 !.tran 0 15m 1u 1u
TEXT 144 48 Left 2 !;ac dec 1000 20 10000
