Version 4
SHEET 1 964 680
WIRE 848 48 784 48
WIRE 784 64 784 48
WIRE 640 96 560 96
WIRE 752 96 720 96
WIRE 848 96 848 48
WIRE 848 96 816 96
WIRE 880 96 848 96
WIRE 208 112 128 112
WIRE 320 112 288 112
WIRE 352 112 320 112
WIRE 368 112 352 112
WIRE 560 112 560 96
WIRE 848 112 848 96
WIRE 128 128 128 112
WIRE 320 144 320 112
WIRE 352 176 352 112
WIRE 320 224 320 208
FLAG 128 208 0
FLAG 320 304 0
FLAG 560 192 0
FLAG 848 192 0
SYMBOL voltage 128 112 R0
WINDOW 123 0 0 Left 2
WINDOW 39 0 0 Left 2
SYMATTR InstName V1
SYMATTR Value 64
SYMBOL res 304 96 R90
WINDOW 0 0 56 VBottom 2
WINDOW 3 32 56 VTop 2
SYMATTR InstName R1
SYMATTR Value 43k
SYMBOL res 464 96 R90
WINDOW 0 0 56 VBottom 2
WINDOW 3 32 56 VTop 2
SYMATTR InstName R2
SYMATTR Value 220k
SYMBOL pot 304 144 R0
SYMATTR InstName U1
SYMATTR Value R={R}
SYMATTR Value2 W=0.95
SYMBOL res 304 208 R0
SYMATTR InstName R3
SYMATTR Value 33k
SYMBOL voltage 560 96 R0
WINDOW 123 0 0 Left 2
WINDOW 39 0 0 Left 2
SYMATTR InstName V2
SYMATTR Value 64
SYMBOL res 736 80 R90
WINDOW 0 0 56 VBottom 2
WINDOW 3 32 56 VTop 2
SYMATTR InstName R4
SYMATTR Value 100
SYMBOL pot 752 112 R270
SYMATTR InstName U2
SYMATTR Value R=33k
SYMATTR Value2 W={W}
SYMBOL res 864 208 R180
WINDOW 0 36 76 Left 2
WINDOW 3 36 40 Left 2
SYMATTR InstName R6
SYMATTR Value 33k
SYMBOL res 976 80 R90
WINDOW 0 0 56 VBottom 2
WINDOW 3 32 56 VTop 2
SYMATTR InstName R5
SYMATTR Value 100k
TEXT 94 328 Left 2 !.tran 0 12ms 1u 1u.
TEXT 504 280 Left 2 !.step param R list 50k 220k 500k
TEXT 504 248 Left 2 !.step param W list 0.05 0.5 0.95
