Version 4
SHEET 1 2840 1268
WIRE 720 -144 720 -192
WIRE 720 -144 624 -144
WIRE 720 -128 720 -144
WIRE 624 -112 624 -144
WIRE 992 0 992 -16
WIRE 1312 32 1312 16
WIRE 1408 32 1312 32
WIRE 1440 32 1408 32
WIRE 1616 32 1584 32
WIRE 1648 32 1616 32
WIRE 1760 32 1728 32
WIRE 1952 32 1760 32
WIRE 1312 48 1312 32
WIRE 1616 64 1616 32
WIRE 1760 64 1760 32
WIRE 1952 64 1952 32
WIRE 2016 96 1984 96
WIRE 880 112 880 64
WIRE 992 112 992 64
WIRE 992 112 880 112
WIRE 1024 112 992 112
WIRE 1120 112 1088 112
WIRE 1152 112 1120 112
WIRE 1264 112 1232 112
WIRE 880 144 880 112
WIRE 1120 144 1120 112
WIRE 1408 176 1408 32
WIRE 640 208 560 208
WIRE 736 208 640 208
WIRE 832 208 736 208
WIRE 560 240 560 208
WIRE 736 240 736 208
WIRE 880 272 880 240
WIRE 1040 272 880 272
WIRE 1168 272 1040 272
WIRE 1408 272 1408 240
WIRE 1408 272 1248 272
WIRE 640 288 640 208
WIRE 880 304 880 272
WIRE 1040 304 1040 272
WIRE 1104 336 1072 336
WIRE 1200 336 1168 336
WIRE 1040 384 1040 368
WIRE 1200 384 1200 336
FLAG 640 368 0
FLAG 624 -32 0
FLAG 720 -64 0
FLAG 880 384 0
FLAG 720 -192 V+
FLAG 736 320 0
FLAG 880 -16 V+
FLAG 992 -16 V+
FLAG 1040 384 0
FLAG 1200 384 0
FLAG 1120 224 0
FLAG 1312 224 0
FLAG 1312 -64 V+
FLAG 1616 128 0
FLAG 1760 128 0
FLAG 1952 128 0
SYMBOL voltage 640 272 R0
WINDOW 123 24 124 Left 2
WINDOW 39 0 0 Left 2
SYMATTR Value2 AC 1
SYMATTR InstName V1
SYMATTR Value SINE(0 1 666)
SYMBOL voltage 624 -128 R0
WINDOW 123 0 0 Left 2
WINDOW 39 0 0 Left 2
SYMATTR InstName V2
SYMATTR Value 9
SYMBOL cap 704 -128 R0
SYMATTR InstName C1
SYMATTR Value 220µ
SYMBOL res 864 288 R0
SYMATTR InstName R4
SYMATTR Value 1.5k
SYMBOL res 864 -32 R0
SYMATTR InstName R5
SYMATTR Value 4.7k
SYMBOL res 720 224 R0
SYMATTR InstName R2
SYMATTR Value 1Meg
SYMBOL cap 1008 64 R180
WINDOW 0 24 56 Left 2
WINDOW 3 24 8 Left 2
SYMATTR InstName C3
SYMATTR Value 1n
SYMBOL njf 832 144 R0
SYMATTR InstName J1
SYMATTR Value J201_1.3
SYMBOL pot 1024 368 M180
SYMATTR InstName U1
SYMATTR Value R=1k
SYMATTR Value2 W=0
SYMATTR SpiceModel pot_log
SYMBOL cap 1168 320 R90
WINDOW 0 0 32 VBottom 2
WINDOW 3 32 32 VTop 2
SYMATTR InstName C2
SYMATTR Value 22µ
SYMBOL cap 1088 96 R90
WINDOW 0 0 32 VBottom 2
WINDOW 3 32 32 VTop 2
SYMATTR InstName C4
SYMATTR Value 68n
SYMBOL res 1104 128 R0
SYMATTR InstName R1
SYMATTR Value 220k
SYMBOL res 1248 96 R90
WINDOW 0 0 56 VBottom 2
WINDOW 3 32 56 VTop 2
SYMATTR InstName R3
SYMATTR Value 2.2k
SYMBOL njf 1264 48 R0
SYMATTR InstName J2
SYMATTR Value J201_1.3
SYMBOL res 1296 128 R0
SYMATTR InstName R6
SYMATTR Value 1k
SYMBOL res 1296 -80 R0
SYMATTR InstName R7
SYMATTR Value 4.7k
SYMBOL cap 1504 16 R90
WINDOW 0 0 32 VBottom 2
WINDOW 3 32 32 VTop 2
SYMATTR InstName C5
SYMATTR Value 68n
SYMBOL res 1264 256 R90
WINDOW 0 0 56 VBottom 2
WINDOW 3 32 56 VTop 2
SYMATTR InstName R8
SYMATTR Value 15k
SYMBOL cap 1424 240 R180
WINDOW 0 24 56 Left 2
WINDOW 3 24 8 Left 2
SYMATTR InstName C6
SYMATTR Value 68n
SYMBOL pot 1936 64 R0
SYMATTR InstName U2
SYMATTR Value R=100k
SYMATTR Value2 W=0.5
SYMATTR SpiceModel pot_log
SYMBOL res 1600 16 R90
WINDOW 0 0 56 VBottom 2
WINDOW 3 32 56 VTop 2
SYMATTR InstName R9
SYMATTR Value 15k
SYMBOL cap 1600 64 R0
SYMATTR InstName C7
SYMATTR Value 2.2nC
SYMBOL res 1744 16 R90
WINDOW 0 0 56 VBottom 2
WINDOW 3 32 56 VTop 2
SYMATTR InstName R10
SYMATTR Value 15k
SYMBOL cap 1744 64 R0
SYMATTR InstName C8
SYMATTR Value 2.2nC
TEXT 536 64 Left 2 !;tran 0 20m 10m
TEXT 536 32 Left 2 !.ac dec 1000 10 10000
TEXT 536 96 Left 2 !.step param W 0 1 0.2
