Version 4
SHEET 1 3092 1268
WIRE 720 -144 720 -192
WIRE 720 -144 624 -144
WIRE 720 -128 720 -144
WIRE 624 -112 624 -144
WIRE 1728 16 1728 0
WIRE 2048 48 2048 32
WIRE 2144 48 2048 48
WIRE 2176 48 2144 48
WIRE 2352 48 2320 48
WIRE 2384 48 2352 48
WIRE 2496 48 2464 48
WIRE 2688 48 2496 48
WIRE 2048 64 2048 48
WIRE 2352 80 2352 48
WIRE 2496 80 2496 48
WIRE 2688 80 2688 48
WIRE 880 112 880 64
WIRE 912 112 880 112
WIRE 1120 112 976 112
WIRE 1440 112 1120 112
WIRE 2752 112 2720 112
WIRE 1120 128 1120 112
WIRE 1616 128 1616 80
WIRE 1728 128 1728 80
WIRE 1728 128 1616 128
WIRE 1760 128 1728 128
WIRE 1856 128 1824 128
WIRE 1888 128 1856 128
WIRE 2000 128 1968 128
WIRE 880 144 880 112
WIRE 1440 144 1440 112
WIRE 1616 160 1616 128
WIRE 1856 160 1856 128
WIRE 2144 192 2144 48
WIRE 640 208 560 208
WIRE 736 208 640 208
WIRE 832 208 736 208
WIRE 1120 224 1120 208
WIRE 1168 224 1120 224
WIRE 1248 224 1232 224
WIRE 1568 224 1376 224
WIRE 560 240 560 208
WIRE 736 240 736 208
WIRE 1120 240 1120 224
WIRE 1440 240 1440 208
WIRE 880 272 880 240
WIRE 976 272 880 272
WIRE 1248 272 1248 224
WIRE 1248 272 1152 272
WIRE 1264 272 1248 272
WIRE 1376 272 1376 224
WIRE 1376 272 1344 272
WIRE 1408 272 1376 272
WIRE 640 288 640 208
WIRE 1616 288 1616 256
WIRE 1776 288 1616 288
WIRE 1904 288 1776 288
WIRE 2144 288 2144 256
WIRE 2144 288 1984 288
WIRE 880 304 880 272
WIRE 976 320 976 272
WIRE 1120 320 1120 304
WIRE 1168 320 1120 320
WIRE 1248 320 1248 272
WIRE 1248 320 1232 320
WIRE 1616 320 1616 288
WIRE 1776 320 1776 288
WIRE 1120 336 1120 320
WIRE 1440 336 1440 304
WIRE 1840 352 1808 352
WIRE 1936 352 1904 352
WIRE 1776 400 1776 384
WIRE 1936 400 1936 352
FLAG 640 368 0
FLAG 624 -32 0
FLAG 720 -64 0
FLAG 1616 400 0
FLAG 720 -192 V+
FLAG 736 320 0
FLAG 1616 0 V+
FLAG 1728 0 V+
FLAG 1776 400 0
FLAG 1936 400 0
FLAG 1856 240 0
FLAG 2048 240 0
FLAG 2048 -48 V+
FLAG 2352 144 0
FLAG 2496 144 0
FLAG 2688 144 0
FLAG 880 384 0
FLAG 880 -16 V+
FLAG 976 384 0
FLAG 1120 416 0
FLAG 1440 400 0
SYMBOL voltage 640 272 R0
WINDOW 123 24 124 Left 2
WINDOW 39 0 0 Left 2
SYMATTR Value2 AC 1
SYMATTR InstName V1
SYMATTR Value SINE(0 1 666)
SYMBOL voltage 624 -128 R0
WINDOW 123 0 0 Left 2
WINDOW 39 0 0 Left 2
SYMATTR InstName V2
SYMATTR Value 9
SYMBOL cap 704 -128 R0
SYMATTR InstName C1
SYMATTR Value 220µ
SYMBOL res 1600 304 R0
SYMATTR InstName R4
SYMATTR Value 1.5k
SYMBOL res 1600 -16 R0
SYMATTR InstName R5
SYMATTR Value 4.7k
SYMBOL res 720 224 R0
SYMATTR InstName R2
SYMATTR Value 1Meg
SYMBOL cap 1744 80 R180
WINDOW 0 24 56 Left 2
WINDOW 3 24 8 Left 2
SYMATTR InstName C3
SYMATTR Value 1n
SYMBOL njf 1568 160 R0
SYMATTR InstName J1
SYMATTR Value J201_1.3
SYMBOL pot 1760 384 M180
SYMATTR InstName U1
SYMATTR Value R=1k
SYMATTR Value2 W=0
SYMATTR SpiceModel pot_log
SYMBOL cap 1904 336 R90
WINDOW 0 0 32 VBottom 2
WINDOW 3 32 32 VTop 2
SYMATTR InstName C2
SYMATTR Value 22µ
SYMBOL cap 1824 112 R90
WINDOW 0 0 32 VBottom 2
WINDOW 3 32 32 VTop 2
SYMATTR InstName C4
SYMATTR Value 68n
SYMBOL res 1840 144 R0
SYMATTR InstName R1
SYMATTR Value 220k
SYMBOL res 1984 112 R90
WINDOW 0 0 56 VBottom 2
WINDOW 3 32 56 VTop 2
SYMATTR InstName R3
SYMATTR Value 2.2k
SYMBOL njf 2000 64 R0
SYMATTR InstName J2
SYMATTR Value J201_1.3
SYMBOL res 2032 144 R0
SYMATTR InstName R6
SYMATTR Value 1k
SYMBOL res 2032 -64 R0
SYMATTR InstName R7
SYMATTR Value 4.7k
SYMBOL cap 2240 32 R90
WINDOW 0 0 32 VBottom 2
WINDOW 3 32 32 VTop 2
SYMATTR InstName C5
SYMATTR Value 68n
SYMBOL res 2000 272 R90
WINDOW 0 0 56 VBottom 2
WINDOW 3 32 56 VTop 2
SYMATTR InstName R8
SYMATTR Value 15k
SYMBOL cap 2160 256 R180
WINDOW 0 24 56 Left 2
WINDOW 3 24 8 Left 2
SYMATTR InstName C6
SYMATTR Value 68n
SYMBOL pot 2672 80 R0
SYMATTR InstName U2
SYMATTR Value R=100k
SYMATTR Value2 W=0.5
SYMATTR SpiceModel pot_log
SYMBOL res 2336 32 R90
WINDOW 0 0 56 VBottom 2
WINDOW 3 32 56 VTop 2
SYMATTR InstName R9
SYMATTR Value 15k
SYMBOL cap 2336 80 R0
SYMATTR InstName C7
SYMATTR Value 2.2nC
SYMBOL res 2480 32 R90
WINDOW 0 0 56 VBottom 2
WINDOW 3 32 56 VTop 2
SYMATTR InstName R10
SYMATTR Value 15k
SYMBOL cap 2480 80 R0
SYMATTR InstName C8
SYMATTR Value 2.2nC
SYMBOL res 864 288 R0
SYMATTR InstName R11
SYMATTR Value 1.5k
SYMBOL res 864 -32 R0
SYMATTR InstName R12
SYMATTR Value 4.7k
SYMBOL njf 832 144 R0
SYMATTR InstName J3
SYMATTR Value J201_1.3
SYMBOL cap 960 320 R0
SYMATTR InstName C9
SYMATTR Value 47µ
SYMBOL cap 976 96 R90
WINDOW 0 0 32 VBottom 2
WINDOW 3 32 32 VTop 2
SYMATTR InstName C10
SYMATTR Value 68n
SYMBOL res 1104 112 R0
WINDOW 0 -46 28 Left 2
WINDOW 3 -59 62 Left 2
SYMATTR InstName R13
SYMATTR Value 100k
SYMBOL pot 1104 240 R0
SYMATTR InstName U3
SYMATTR Value R=1Meg
SYMATTR Value2 W={W}
SYMATTR SpiceModel pot_log
SYMBOL cap 1232 208 R90
WINDOW 0 0 32 VBottom 2
WINDOW 3 32 32 VTop 2
SYMATTR InstName C11
SYMATTR Value 2.2n
SYMBOL cap 1232 304 R90
WINDOW 0 0 32 VBottom 2
WINDOW 3 32 32 VTop 2
SYMATTR InstName C12
SYMATTR Value 22n
SYMBOL res 1104 320 R0
SYMATTR InstName R14
SYMATTR Value 22k
SYMBOL res 1360 256 R90
WINDOW 0 0 56 VBottom 2
WINDOW 3 32 56 VTop 2
SYMATTR InstName R15
SYMATTR Value 100k
SYMBOL pot 1456 240 M0
SYMATTR InstName U4
SYMATTR Value R=1Meg
SYMATTR Value2 W=0.5
SYMATTR SpiceModel pot_log
SYMBOL cap 1424 144 R0
SYMATTR InstName C13
SYMATTR Value 330p
SYMBOL cap 1424 336 R0
SYMATTR InstName C14
SYMATTR Value 2.2n
TEXT 536 64 Left 2 !;tran 0 20m 10m
TEXT 536 32 Left 2 !.ac dec 1000 10 10000
TEXT 536 96 Left 2 !.step param W 0 1 0.2
