Version 4
SHEET 1 1620 864
WIRE 176 -352 96 -352
WIRE 272 -352 176 -352
WIRE 336 -352 272 -352
WIRE 96 -336 96 -352
WIRE 272 -336 272 -352
WIRE 176 -256 176 -352
WIRE 272 -240 272 -256
WIRE 352 -240 272 -240
WIRE 400 -240 352 -240
WIRE 272 -224 272 -240
WIRE 352 -224 352 -240
WIRE 112 -16 48 -16
WIRE 48 0 48 -16
WIRE 112 32 112 -16
WIRE 112 32 80 32
WIRE 416 32 112 32
WIRE 528 32 416 32
WIRE 656 32 608 32
WIRE 416 48 416 32
WIRE 48 80 48 64
WIRE 176 80 48 80
WIRE 208 80 176 80
WIRE 304 80 272 80
WIRE 544 160 432 160
WIRE 176 176 176 80
WIRE 208 176 176 176
WIRE 656 176 656 32
WIRE 656 176 608 176
WIRE 304 192 304 80
WIRE 304 192 272 192
WIRE 320 192 304 192
WIRE 496 192 400 192
WIRE 544 192 496 192
WIRE 176 208 144 208
WIRE 208 208 176 208
WIRE 496 272 496 192
WIRE 528 272 496 272
WIRE 656 272 656 176
WIRE 656 272 608 272
WIRE 176 304 176 208
WIRE 320 304 176 304
WIRE 432 304 432 160
WIRE 432 304 400 304
WIRE 432 320 432 304
WIRE 592 400 544 400
WIRE 672 400 640 400
WIRE 848 400 736 400
WIRE 304 432 304 192
WIRE 592 432 592 400
WIRE 768 432 752 432
WIRE 848 432 832 432
WIRE 400 464 336 464
WIRE 448 464 400 464
WIRE 544 464 544 400
WIRE 544 464 528 464
WIRE 560 464 544 464
WIRE 640 464 640 400
WIRE 640 464 624 464
WIRE 752 464 752 432
WIRE 752 464 640 464
WIRE 848 464 752 464
WIRE 400 480 400 464
WIRE 848 512 800 512
WIRE 800 544 800 512
WIRE 848 544 800 544
WIRE 1232 560 1088 560
WIRE 800 592 800 544
WIRE 800 592 768 592
WIRE 848 592 800 592
WIRE 848 624 800 624
WIRE 800 656 800 624
WIRE 848 656 800 656
WIRE 1232 656 1088 656
WIRE 800 704 800 656
WIRE 848 704 800 704
WIRE 800 736 800 704
FLAG 176 -176 0
FLAG 272 -144 0
FLAG 96 -272 0
FLAG 352 -160 0
FLAG 336 -352 V+
FLAG 400 -240 Vref
FLAG 64 208 V+
FLAG 240 160 V+
FLAG 240 224 0
FLAG 576 144 V+
FLAG 576 208 0
FLAG 432 400 0
FLAG 416 112 0
FLAG 304 496 0
FLAG 768 592 V+
FLAG 800 736 0
FLAG 400 544 0
SYMBOL voltage 176 -272 R0
WINDOW 123 0 0 Left 2
WINDOW 39 0 0 Left 2
SYMATTR InstName V2
SYMATTR Value 9
SYMBOL res 256 -352 R0
SYMATTR InstName R1
SYMATTR Value 10k
SYMBOL res 256 -240 R0
SYMATTR InstName R2
SYMATTR Value 10k
SYMBOL cap 336 -224 R0
SYMATTR InstName C1
SYMATTR Value 100µ
SYMBOL cap 80 -336 R0
SYMATTR InstName C2
SYMATTR Value 100µ
SYMBOL EXTRA\\AudioOpamp\\TI\\TL072_TI 240 192 R0
SYMATTR InstName U1
SYMBOL res 160 192 R90
WINDOW 0 0 56 VBottom 2
WINDOW 3 32 56 VTop 2
SYMATTR InstName R3
SYMATTR Value 180k
SYMBOL EXTRA\\AudioOpamp\\TI\\TL072_TI 576 176 R0
SYMATTR InstName U2
SYMBOL res 416 288 R90
WINDOW 0 0 56 VBottom 2
WINDOW 3 32 56 VTop 2
SYMATTR InstName R4
SYMATTR Value 68k
SYMBOL res 416 176 R90
WINDOW 0 0 56 VBottom 2
WINDOW 3 32 56 VTop 2
SYMATTR InstName R5
SYMATTR Value 120k
SYMBOL cap 272 64 R90
WINDOW 0 0 32 VBottom 2
WINDOW 3 32 32 VTop 2
SYMATTR InstName C3
SYMATTR Value 2.2µ
SYMBOL res 448 416 R180
WINDOW 0 36 76 Left 2
WINDOW 3 36 40 Left 2
SYMATTR InstName R6
SYMATTR Value 82k
SYMBOL res 624 256 R90
WINDOW 0 0 56 VBottom 2
WINDOW 3 32 56 VTop 2
SYMATTR InstName R7
SYMATTR Value 470k
SYMBOL pot 32 0 R0
WINDOW 0 -10 10 Right 2
WINDOW 3 -8 36 Right 2
WINDOW 123 -7 65 Right 2
SYMATTR InstName U3
SYMATTR Value R=1Meg
SYMATTR Value2 W=0.5
SYMBOL res 624 16 R90
WINDOW 0 0 56 VBottom 2
WINDOW 3 32 56 VTop 2
SYMATTR InstName R8
SYMATTR Value 47k
SYMBOL cap 432 112 R180
WINDOW 0 24 56 Left 2
WINDOW 3 24 8 Left 2
SYMATTR InstName C4
SYMATTR Value 47n
SYMBOL pot 288 432 R0
WINDOW 0 -10 10 Right 2
WINDOW 3 -8 36 Right 2
WINDOW 123 -7 65 Right 2
SYMATTR InstName U4
SYMATTR Value2 W=0.5
SYMBOL cap 416 544 R180
WINDOW 0 24 56 Left 2
WINDOW 3 24 8 Left 2
SYMATTR InstName C5
SYMATTR Value 10µ
SYMBOL res 544 448 R90
WINDOW 0 0 56 VBottom 2
WINDOW 3 32 56 VTop 2
SYMATTR InstName R9
SYMATTR Value 4.7k
SYMBOL pot 560 480 R270
WINDOW 0 -10 10 Right 2
WINDOW 3 -8 36 Right 2
WINDOW 123 -7 65 Right 2
SYMATTR InstName U5
SYMATTR Value R=100k
SYMATTR Value2 W=0.5
SYMATTR SpiceModel pot_log
SYMBOL EXTRA\\CD4000\\CD4047B 960 416 R0
SYMATTR InstName U6
SYMBOL cap 672 416 R270
WINDOW 0 32 32 VTop 2
WINDOW 3 0 32 VBottom 2
SYMATTR InstName C6
SYMATTR Value 250p
SYMBOL diode 832 416 R90
WINDOW 0 0 32 VBottom 2
WINDOW 3 32 32 VTop 2
SYMATTR InstName D1
SYMATTR Value 1N4148
TEXT 648 -240 Left 2 !;ac dec 1000 10 10000
TEXT 648 -192 Left 2 !.tran 5
TEXT 880 64 Left 2 !.inc cd4047b.sub
TEXT 880 112 Left 2 !.include cd4000.lib
TEXT 888 184 Left 2 !;.step param W list 0, 0.25, 0.5, 0.75, 1
