Version 4
SHEET 1 1448 1196
WIRE 608 -144 608 -160
WIRE 720 -144 608 -144
WIRE 720 -128 720 -144
WIRE 608 -80 608 -144
WIRE 720 -32 720 -48
WIRE 800 -32 720 -32
WIRE 880 -32 800 -32
WIRE 720 -16 720 -32
WIRE 800 -16 800 -32
WIRE 208 96 128 96
WIRE 304 96 272 96
WIRE 416 96 384 96
WIRE 864 112 672 112
WIRE 128 192 128 96
WIRE 672 208 672 112
WIRE 672 208 560 208
WIRE 736 208 672 208
WIRE 864 224 864 112
WIRE 864 224 800 224
WIRE 992 224 864 224
WIRE 736 240 688 240
WIRE 208 336 128 336
WIRE 304 336 272 336
WIRE 416 336 384 336
WIRE 128 384 128 336
FLAG 128 272 0
FLAG 128 464 0
FLAG 608 0 0
FLAG 608 -160 V+
FLAG 720 64 0
FLAG 800 48 0
FLAG 880 -32 Vref
FLAG 768 192 V+
FLAG 768 256 0
FLAG 688 240 Vref
SYMBOL voltage 128 176 R0
WINDOW 123 24 124 Left 2
WINDOW 39 0 0 Left 2
SYMATTR Value2 AC 1
SYMATTR InstName V1
SYMATTR Value SINE(0 1 250)
SYMBOL voltage 128 368 R0
WINDOW 123 24 124 Left 2
WINDOW 39 0 0 Left 2
SYMATTR Value2 AC 1
SYMATTR InstName V2
SYMATTR Value SINE(0 1 500)
SYMBOL voltage 608 -96 R0
WINDOW 123 0 0 Left 2
WINDOW 39 0 0 Left 2
SYMATTR InstName V3
SYMATTR Value 9
SYMBOL res 400 80 R90
WINDOW 0 0 56 VBottom 2
WINDOW 3 32 56 VTop 2
SYMATTR InstName R1
SYMATTR Value 100k
SYMBOL res 400 320 R90
WINDOW 0 0 56 VBottom 2
WINDOW 3 32 56 VTop 2
SYMATTR InstName R2
SYMATTR Value 100k
SYMBOL cap 272 80 R90
WINDOW 0 0 32 VBottom 2
WINDOW 3 32 32 VTop 2
SYMATTR InstName C3
SYMATTR Value 10µ
SYMBOL cap 272 320 R90
WINDOW 0 0 32 VBottom 2
WINDOW 3 32 32 VTop 2
SYMATTR InstName C4
SYMATTR Value 10µ
SYMBOL EXTRA\\AudioOpamp\\TI\\TL072_TI 768 224 R0
SYMATTR InstName U1
SYMBOL pot 512 176 R0
SYMATTR InstName U2
SYMBOL res 704 -144 R0
SYMATTR InstName R3
SYMATTR Value 10k
SYMBOL res 704 -32 R0
SYMATTR InstName R4
SYMATTR Value 10k
SYMBOL cap 784 -16 R0
SYMATTR InstName C1
SYMATTR Value 100µ
TEXT 80 -80 Left 2 !.tran 0 15m 1u 1u
TEXT 80 -40 Left 2 !;ac dec 10000 10 10000
TEXT 312 -136 Left 2 !.step param W 0 1 0.1
