Version 4
SHEET 1 1448 1196
WIRE 768 16 768 -48
WIRE 208 96 128 96
WIRE 304 96 272 96
WIRE 416 96 384 96
WIRE 448 96 416 96
WIRE 560 96 528 96
WIRE 768 128 768 96
WIRE 832 128 768 128
WIRE 928 128 896 128
WIRE 768 144 768 128
WIRE 928 144 928 128
WIRE 416 176 416 96
WIRE 1072 176 960 176
WIRE 128 192 128 96
WIRE 384 208 320 208
WIRE 560 208 560 96
WIRE 656 208 656 160
WIRE 656 208 624 208
WIRE 720 208 656 208
WIRE 320 224 320 208
WIRE 656 240 656 208
WIRE 768 272 768 240
WIRE 208 336 128 336
WIRE 304 336 272 336
WIRE 416 336 416 240
WIRE 416 336 384 336
WIRE 448 336 416 336
WIRE 560 336 560 208
WIRE 560 336 528 336
WIRE 128 384 128 336
FLAG 128 272 0
FLAG 128 464 0
FLAG 768 352 0
FLAG 640 -16 0
FLAG 640 -96 V+
FLAG 768 -48 V+
FLAG 656 320 0
FLAG 656 80 V+
FLAG 928 208 0
FLAG 320 224 0
SYMBOL voltage 128 176 R0
WINDOW 123 24 124 Left 2
WINDOW 39 0 0 Left 2
SYMATTR Value2 AC 1
SYMATTR InstName V1
SYMATTR Value SINE(0 1 250)
SYMBOL voltage 128 368 R0
WINDOW 123 24 124 Left 2
WINDOW 39 0 0 Left 2
SYMATTR Value2 AC 1
SYMATTR InstName V2
SYMATTR Value SINE(0 1 500)
SYMBOL njf 720 144 R0
SYMATTR InstName J1
SYMATTR Value J201
SYMBOL res 752 256 R0
SYMATTR InstName R3
SYMATTR Value 2k
SYMBOL voltage 640 -112 R0
WINDOW 123 0 0 Left 2
WINDOW 39 0 0 Left 2
SYMATTR InstName V3
SYMATTR Value 9
SYMBOL res 752 0 R0
SYMATTR InstName R4
SYMATTR Value 6.1k
SYMBOL res 640 224 R0
SYMATTR InstName R5
SYMATTR Value 1Meg
SYMBOL res 640 64 R0
SYMATTR InstName R6
SYMATTR Value 4.7Meg
SYMBOL cap 624 192 R90
WINDOW 0 0 32 VBottom 2
WINDOW 3 32 32 VTop 2
SYMATTR InstName C1
SYMATTR Value 1
SYMBOL cap 896 112 R90
WINDOW 0 0 32 VBottom 2
WINDOW 3 32 32 VTop 2
SYMATTR InstName C2
SYMATTR Value 10
SYMBOL pot 912 144 R0
SYMATTR InstName U1
SYMATTR Value R=22k
SYMATTR Value2 W=1
SYMBOL pot 432 240 R180
SYMATTR InstName U2
SYMATTR Value R=440k
SYMATTR Value2 W={W}
SYMBOL res 400 80 R90
WINDOW 0 0 56 VBottom 2
WINDOW 3 32 56 VTop 2
SYMATTR InstName R1
SYMATTR Value 100k
SYMBOL res 400 320 R90
WINDOW 0 0 56 VBottom 2
WINDOW 3 32 56 VTop 2
SYMATTR InstName R2
SYMATTR Value 100k
SYMBOL res 544 80 R90
WINDOW 0 0 56 VBottom 2
WINDOW 3 32 56 VTop 2
SYMATTR InstName R7
SYMATTR Value 100k
SYMBOL res 544 320 R90
WINDOW 0 0 56 VBottom 2
WINDOW 3 32 56 VTop 2
SYMATTR InstName R8
SYMATTR Value 100k
SYMBOL cap 272 80 R90
WINDOW 0 0 32 VBottom 2
WINDOW 3 32 32 VTop 2
SYMATTR InstName C3
SYMATTR Value 10
SYMBOL cap 272 320 R90
WINDOW 0 0 32 VBottom 2
WINDOW 3 32 32 VTop 2
SYMATTR InstName C4
SYMATTR Value 10
TEXT 80 -80 Left 2 !.tran 0 15m 1u 1u
TEXT 80 -40 Left 2 !;ac dec 10000 10 10000
TEXT 880 -40 Left 2 !.step param W list 0.05, 0.25, 0.5, .0.75, 0.95
