Version 4
SHEET 1 880 680
WIRE -608 240 -608 208
WIRE -464 208 -608 208
WIRE -288 208 -400 208
WIRE -288 208 -288 -96
WIRE -288 480 -288 208
WIRE -256 -96 -288 -96
WIRE -256 480 -288 480
WIRE -160 -96 -176 -96
WIRE -160 -96 -160 -192
WIRE -144 -96 -160 -96
WIRE -144 480 -176 480
WIRE -48 -96 -64 -96
WIRE -48 0 -48 -96
WIRE -48 96 -48 0
WIRE -48 224 -48 176
WIRE -48 272 -48 224
WIRE -48 368 -48 352
WIRE -48 480 -64 480
WIRE -48 480 -48 432
WIRE -32 -192 -160 -192
WIRE -32 -96 -48 -96
WIRE -32 480 -48 480
WIRE 48 0 -48 0
WIRE 64 -192 32 -192
WIRE 64 -96 48 -96
WIRE 64 -96 64 -192
WIRE 80 -96 64 -96
WIRE 80 480 48 480
WIRE 96 224 -48 224
WIRE 128 80 128 64
WIRE 128 176 128 160
WIRE 128 208 128 176
WIRE 208 -96 160 -96
WIRE 208 0 112 0
WIRE 208 0 208 -96
WIRE 208 144 208 0
WIRE 208 240 160 240
WIRE 208 240 208 144
WIRE 208 480 160 480
WIRE 208 480 208 240
WIRE 480 144 208 144
FLAG 96 256 0
FLAG 128 64 0
FLAG 128 352 0
FLAG -608 320 0
FLAG 480 144 vout
FLAG 128 176 +Vs
SYMBOL Opamps\\LT1056 128 176 R0
SYMATTR InstName U1
SYMBOL voltage 128 176 R180
WINDOW 0 24 104 Left 0
WINDOW 3 24 16 Left 0
WINDOW 123 0 0 Left 0
WINDOW 39 0 0 Left 0
SYMATTR InstName V1
SYMATTR Value 4.5
SYMBOL voltage 128 368 R180
WINDOW 0 24 104 Left 0
WINDOW 3 24 16 Left 0
WINDOW 123 0 0 Left 0
WINDOW 39 0 0 Left 0
SYMATTR InstName V2
SYMATTR Value 4.5
SYMBOL res -160 -112 R90
WINDOW 0 0 56 VBottom 0
WINDOW 3 32 56 VTop 0
SYMATTR InstName R1
SYMATTR Value 20k
SYMBOL res -48 -112 R90
WINDOW 0 0 56 VBottom 0
WINDOW 3 32 56 VTop 0
SYMATTR InstName R2
SYMATTR Value 1
SYMBOL res 64 -112 R90
WINDOW 0 0 56 VBottom 0
WINDOW 3 32 56 VTop 0
SYMATTR InstName R3
SYMATTR Value 50k
SYMBOL res 176 -112 R90
WINDOW 0 0 56 VBottom 0
WINDOW 3 32 56 VTop 0
SYMATTR InstName R4
SYMATTR Value 20k
SYMBOL cap -64 368 R0
SYMATTR InstName C1
SYMATTR Value .001µ
SYMBOL res -160 464 R90
WINDOW 0 0 56 VBottom 0
WINDOW 3 32 56 VTop 0
SYMATTR InstName R7
SYMATTR Value 10k
SYMBOL res -48 464 R90
WINDOW 0 0 56 VBottom 0
WINDOW 3 32 56 VTop 0
SYMATTR InstName R8
SYMATTR Value 1
SYMBOL res 64 464 R90
WINDOW 0 0 56 VBottom 0
WINDOW 3 32 56 VTop 0
SYMATTR InstName R9
SYMATTR Value 50k
SYMBOL res 176 464 R90
WINDOW 0 0 56 VBottom 0
WINDOW 3 32 56 VTop 0
SYMATTR InstName R10
SYMATTR Value 10k
SYMBOL voltage -608 224 R0
WINDOW 123 24 132 Left 0
WINDOW 39 0 0 Left 0
SYMATTR Value2 AC 1.
SYMATTR InstName V3
SYMATTR Value SINE(0 1.5 1000)
SYMBOL cap 32 -208 R90
WINDOW 0 0 32 VBottom 0
WINDOW 3 32 32 VTop 0
SYMATTR InstName C2
SYMATTR Value .033µ
SYMBOL res -64 80 R0
SYMATTR InstName R5
SYMATTR Value 100k
SYMBOL res -64 256 R0
SYMATTR InstName R6
SYMATTR Value 20k
SYMBOL cap -400 192 R90
WINDOW 0 0 32 VBottom 0
WINDOW 3 32 32 VTop 0
SYMATTR InstName C3
SYMATTR Value 1µ
SYMBOL cap 112 -16 R90
WINDOW 0 0 32 VBottom 0
WINDOW 3 32 32 VTop 0
SYMATTR InstName C4
SYMATTR Value 330p
TEXT -80 -120 Left 0 ;Bass
TEXT -72 504 Left 0 ;Treb
TEXT -370 530 Left 0 !.ac dec 10 20 20000
TEXT -704 -8 Left 0 ;Vary R2/R3 to change bass level\nVary R8/R9 to change treble level
