Version 4
SHEET 1 2660 680
WIRE 1056 -592 1056 -640
WIRE 1056 -592 944 -592
WIRE 1168 -592 1056 -592
WIRE 1280 -592 1168 -592
WIRE 1424 -592 1424 -640
WIRE 1424 -592 1360 -592
WIRE 1520 -592 1424 -592
WIRE 944 -576 944 -592
WIRE 1168 -576 1168 -592
WIRE 1424 -576 1424 -592
WIRE 1520 -576 1520 -592
WIRE 1056 -560 1056 -592
WIRE 1168 -480 1168 -496
WIRE 1264 -480 1168 -480
WIRE 1328 -480 1264 -480
WIRE 1520 -480 1520 -496
WIRE 1616 -480 1520 -480
WIRE 1680 -480 1616 -480
WIRE 1168 -464 1168 -480
WIRE 1264 -464 1264 -480
WIRE 1520 -464 1520 -480
WIRE 1616 -464 1616 -480
WIRE 1856 -368 1808 -368
WIRE 1968 -368 1936 -368
WIRE 2032 -368 1968 -368
WIRE 2160 -368 2112 -368
WIRE 1968 -240 1968 -368
WIRE 2048 -240 1968 -240
WIRE 2160 -224 2160 -368
WIRE 2160 -224 2112 -224
WIRE 2192 -224 2160 -224
WIRE 2336 -224 2272 -224
WIRE 576 -208 544 -208
WIRE 688 -208 640 -208
WIRE 784 -208 768 -208
WIRE 800 -208 784 -208
WIRE 880 -208 864 -208
WIRE 1776 -208 1712 -208
WIRE 2048 -208 1776 -208
WIRE 544 -176 544 -208
WIRE 1712 -176 1712 -208
WIRE 784 -160 784 -208
WIRE 832 -160 832 -176
WIRE 832 -160 784 -160
WIRE 688 -112 688 -208
WIRE 752 -112 688 -112
WIRE 880 -112 880 -208
WIRE 880 -112 816 -112
WIRE 1776 -64 1776 -208
WIRE 1936 -64 1776 -64
WIRE 2080 -64 2016 -64
WIRE 2160 -64 2160 -224
WIRE 2160 -64 2144 -64
WIRE 688 -16 688 -112
WIRE 752 -16 688 -16
WIRE 880 -16 880 -112
WIRE 880 -16 816 -16
WIRE 1440 -16 1296 -16
WIRE 1776 -16 1776 -64
WIRE 1824 -16 1776 -16
WIRE 2016 -16 1888 -16
WIRE 2112 0 2112 -32
WIRE 2160 0 2160 -64
WIRE 2160 0 2112 0
WIRE 2016 16 2016 -16
WIRE 2064 48 2048 48
WIRE 2160 48 2160 0
WIRE 2160 48 2144 48
WIRE 1296 64 1296 -16
WIRE 1328 64 1296 64
WIRE 688 80 688 -16
WIRE 736 80 688 80
WIRE 1440 80 1440 -16
WIRE 1440 80 1392 80
WIRE 1488 80 1440 80
WIRE 1584 80 1552 80
WIRE 880 96 880 -16
WIRE 880 96 800 96
WIRE 912 96 880 96
WIRE 1040 96 992 96
WIRE 1184 96 1136 96
WIRE 1296 96 1264 96
WIRE 1328 96 1296 96
WIRE 1776 96 1776 -16
WIRE 1824 96 1776 96
WIRE 2016 96 2016 80
WIRE 2016 96 1888 96
WIRE 512 112 384 112
WIRE 544 112 512 112
WIRE 656 112 608 112
WIRE 736 112 656 112
WIRE 512 144 512 112
WIRE 656 144 656 112
WIRE 1296 144 1296 96
WIRE 1584 144 1584 80
WIRE 1648 176 1616 176
WIRE 1696 176 1648 176
WIRE 384 192 384 112
WIRE 1104 208 1104 144
WIRE 1648 208 1648 176
FLAG 384 272 0
FLAG 1264 -400 0
FLAG 944 -512 0
FLAG 1056 -480 0
FLAG 1056 -640 V+
FLAG 1328 -480 Vref
FLAG 512 224 0
FLAG 656 224 Vref
FLAG 768 128 0
FLAG 768 64 V+
FLAG 544 -96 0
FLAG 1168 -384 0
FLAG 1616 -400 0
FLAG 1680 -480 Vref2
FLAG 1520 -384 0
FLAG 1424 -512 0
FLAG 1424 -640 V+2
FLAG 1296 208 0
FLAG 1360 112 0
FLAG 1360 48 V+
FLAG 1648 288 0
FLAG 1584 208 0
FLAG 1104 208 control
FLAG 2080 -192 0
FLAG 2080 -256 V++
FLAG 2336 -224 control
FLAG 1808 -368 Vref2
FLAG 1712 -112 0
SYMBOL voltage 384 176 R0
WINDOW 123 24 124 Left 2
WINDOW 39 0 0 Left 2
SYMATTR Value2 AC 1
SYMATTR InstName V1
SYMATTR Value SINE(0 1 1000)
SYMBOL res 496 128 R0
SYMATTR InstName R1
SYMATTR Value 1Meg
SYMBOL cap 608 96 R90
WINDOW 0 0 32 VBottom 2
WINDOW 3 32 32 VTop 2
SYMATTR InstName C1
SYMATTR Value 47n
SYMBOL res 640 128 R0
SYMATTR InstName R3
SYMATTR Value 1Meg
SYMBOL EXTRA\\AudioOpamp\\TI\\TL072_TI 768 96 R0
SYMATTR InstName U1
SYMBOL diode 816 -32 R90
WINDOW 0 0 32 VBottom 2
WINDOW 3 32 32 VTop 2
SYMATTR InstName D1
SYMATTR Value 1N4148
SYMBOL diode 752 -96 R270
WINDOW 0 32 32 VTop 2
WINDOW 3 0 32 VBottom 2
SYMATTR InstName D2
SYMATTR Value 1N4148
SYMBOL res 784 -224 R90
WINDOW 0 0 56 VBottom 2
WINDOW 3 32 56 VTop 2
SYMATTR InstName R6
SYMATTR Value 2k
SYMBOL pot 864 -224 R90
WINDOW 3 -87 -10 Left 2
WINDOW 123 -71 57 Left 2
SYMATTR Value R=100k
SYMATTR Value2 W=0.5
SYMATTR InstName U2
SYMATTR SpiceModel pot_log
SYMBOL res 1008 80 R90
WINDOW 0 0 56 VBottom 2
WINDOW 3 32 56 VTop 2
SYMATTR InstName R7
SYMATTR Value 1k
SYMBOL cap 640 -224 R90
WINDOW 0 0 32 VBottom 2
WINDOW 3 32 32 VTop 2
SYMATTR InstName C4
SYMATTR Value 10µ
SYMBOL res 560 -80 R180
WINDOW 0 36 76 Left 2
WINDOW 3 36 40 Left 2
SYMATTR InstName R8
SYMATTR Value 1k
SYMBOL voltage 1056 -576 R0
WINDOW 123 0 0 Left 2
WINDOW 39 0 0 Left 2
SYMATTR InstName V2
SYMATTR Value 9
SYMBOL res 1152 -592 R0
SYMATTR InstName R23
SYMATTR Value 10k
SYMBOL res 1152 -480 R0
SYMATTR InstName R24
SYMATTR Value 10k
SYMBOL cap 1248 -464 R0
SYMATTR InstName C15
SYMATTR Value 220µ
SYMBOL cap 928 -576 R0
SYMATTR InstName C16
SYMATTR Value 220µ
SYMBOL res 1376 -608 R90
WINDOW 0 0 56 VBottom 2
WINDOW 3 32 56 VTop 2
SYMATTR InstName R9
SYMATTR Value 50
SYMBOL res 1504 -592 R0
SYMATTR InstName R10
SYMATTR Value 10k
SYMBOL res 1504 -480 R0
SYMATTR InstName R11
SYMATTR Value 10k
SYMBOL cap 1600 -464 R0
SYMATTR InstName C5
SYMATTR Value 220µ
SYMBOL cap 1408 -576 R0
SYMATTR InstName C6
SYMATTR Value 220µ
SYMBOL njf 1040 144 R270
SYMATTR InstName J1
SYMATTR Value BF245_C
SYMBOL res 1280 80 R90
WINDOW 0 0 56 VBottom 2
WINDOW 3 32 56 VTop 2
SYMATTR InstName R2
SYMATTR Value 1k
SYMBOL cap 1312 208 R180
WINDOW 0 24 56 Left 2
WINDOW 3 24 8 Left 2
SYMATTR InstName C2
SYMATTR Value 47n
SYMBOL EXTRA\\AudioOpamp\\TI\\TL072_TI 1360 80 R0
SYMATTR InstName U3
SYMBOL cap 1552 64 R90
WINDOW 0 0 32 VBottom 2
WINDOW 3 32 32 VTop 2
SYMATTR InstName C3
SYMATTR Value 4.7µ
SYMBOL pot 1568 144 R0
WINDOW 3 -91 91 Left 2
WINDOW 123 -71 57 Left 2
SYMATTR Value R=100k
SYMATTR Value2 W=0.5
SYMATTR InstName U4
SYMATTR SpiceModel pot_log
SYMBOL res 1632 192 R0
SYMATTR InstName R4
SYMATTR Value 1Meg
SYMBOL EXTRA\\AudioOpamp\\TI\\TL072_TI 2080 -224 R0
SYMATTR InstName U5
SYMBOL res 2288 -240 R90
WINDOW 0 0 56 VBottom 2
WINDOW 3 32 56 VTop 2
SYMATTR InstName R5
SYMATTR Value 1Meg
SYMBOL res 2128 -384 R90
WINDOW 0 0 56 VBottom 2
WINDOW 3 32 56 VTop 2
SYMATTR InstName R12
SYMATTR Value 3.3k
SYMBOL res 1952 -384 R90
WINDOW 0 0 56 VBottom 2
WINDOW 3 32 56 VTop 2
SYMATTR InstName R13
SYMATTR Value 47k
SYMBOL pot 2144 -80 R90
WINDOW 3 -89 -10 Left 2
WINDOW 123 -71 57 Left 2
SYMATTR Value R=1Meg
SYMATTR Value2 W=0.5
SYMATTR InstName U6
SYMBOL res 2160 32 R90
WINDOW 0 0 56 VBottom 2
WINDOW 3 32 56 VTop 2
SYMATTR InstName R14
SYMATTR Value 4.7k
SYMBOL diode 1888 80 R90
WINDOW 0 0 32 VBottom 2
WINDOW 3 32 32 VTop 2
SYMATTR InstName D3
SYMATTR Value 1N4148
SYMBOL diode 1824 0 R270
WINDOW 0 32 32 VTop 2
WINDOW 3 0 32 VBottom 2
SYMATTR InstName D4
SYMATTR Value 1N4148
SYMBOL res 2032 -80 R90
WINDOW 0 0 56 VBottom 2
WINDOW 3 32 56 VTop 2
SYMATTR InstName R15
SYMATTR Value 12k
SYMBOL cap 1728 -112 R180
WINDOW 0 24 56 Left 2
WINDOW 3 24 8 Left 2
SYMATTR InstName C7
SYMATTR Value 22n
SYMBOL pot 2000 16 R0
WINDOW 3 -89 -10 Left 2
WINDOW 123 -71 57 Left 2
SYMATTR Value R=100k
SYMATTR Value2 W=0.5
SYMATTR InstName U8
TEXT 1112 -184 Left 2 !.tran 0 30m 10m
TEXT 1112 -144 Left 2 !;ac dec 1000 10 10000
TEXT 1112 -112 Left 2 !;.step param W 0 1 0.1
