Version 4
SHEET 1 2952 680
WIRE 544 32 496 32
WIRE 576 32 544 32
WIRE 672 32 640 32
WIRE 768 32 736 32
WIRE 816 32 768 32
WIRE 944 32 896 32
WIRE 1056 32 1008 32
WIRE 1088 32 1056 32
WIRE 1136 32 1088 32
WIRE 1264 32 1216 32
WIRE 1008 64 1008 32
WIRE 544 80 544 32
WIRE 608 80 608 64
WIRE 608 80 544 80
WIRE 1056 96 1056 32
WIRE 1056 96 1040 96
WIRE 768 128 768 32
WIRE 832 128 768 128
WIRE 944 128 944 32
WIRE 944 128 896 128
WIRE 1088 128 1088 32
WIRE 1152 128 1088 128
WIRE 1264 128 1264 32
WIRE 1264 128 1216 128
WIRE 2016 128 1984 128
WIRE 2112 128 2080 128
WIRE 2224 128 2112 128
WIRE 2288 128 2224 128
WIRE 2448 128 2368 128
WIRE 2608 128 2480 128
WIRE 1616 144 1568 144
WIRE 1728 144 1680 144
WIRE 1856 144 1728 144
WIRE 400 160 240 160
WIRE 1008 176 1008 128
WIRE 2480 192 2480 128
WIRE 2512 192 2480 192
WIRE 2112 208 2112 128
WIRE 2144 208 2112 208
WIRE 2608 208 2608 128
WIRE 2608 208 2576 208
WIRE 2640 208 2608 208
WIRE 2736 208 2704 208
WIRE 1728 224 1728 144
WIRE 1760 224 1728 224
WIRE 2224 224 2224 128
WIRE 2224 224 2208 224
WIRE 2256 224 2224 224
WIRE 2336 224 2320 224
WIRE 2352 224 2336 224
WIRE 2448 224 2448 128
WIRE 2448 224 2416 224
WIRE 2512 224 2448 224
WIRE 240 240 240 160
WIRE 288 240 240 240
WIRE 768 240 768 128
WIRE 832 240 768 240
WIRE 1088 240 1088 128
WIRE 1152 240 1088 240
WIRE 1856 240 1856 144
WIRE 1856 240 1824 240
WIRE 1888 240 1856 240
WIRE 1984 240 1984 128
WIRE 1984 240 1968 240
WIRE 2000 240 1984 240
WIRE 2112 240 2080 240
WIRE 2144 240 2112 240
WIRE 400 256 400 160
WIRE 400 256 352 256
WIRE 944 256 944 128
WIRE 944 256 896 256
WIRE 1264 256 1264 128
WIRE 1264 256 1216 256
WIRE 1296 256 1264 256
WIRE 1408 256 1376 256
WIRE 1440 256 1408 256
WIRE 1568 256 1568 144
WIRE 1568 256 1520 256
WIRE 1616 256 1568 256
WIRE 1728 256 1696 256
WIRE 1760 256 1728 256
WIRE 64 272 48 272
WIRE 144 272 128 272
WIRE 256 272 224 272
WIRE 288 272 256 272
WIRE 400 272 400 256
WIRE 448 272 400 272
WIRE 576 272 528 272
WIRE 624 272 576 272
WIRE 784 272 688 272
WIRE 832 272 784 272
WIRE 944 272 944 256
WIRE 1152 272 944 272
WIRE 1568 272 1568 256
WIRE 2112 272 2112 240
WIRE 2336 272 2336 224
WIRE 256 288 256 272
WIRE 784 288 784 272
WIRE 1408 288 1408 256
WIRE 1728 304 1728 256
WIRE 48 320 48 272
WIRE 400 320 400 272
WIRE 576 320 576 272
WIRE 1568 368 1568 352
WIRE 400 416 400 384
WIRE 448 416 400 416
WIRE 576 416 576 384
WIRE 576 416 512 416
WIRE 400 464 400 416
WIRE 576 464 576 416
WIRE 1008 464 944 464
WIRE 1136 464 1008 464
WIRE 1168 464 1136 464
WIRE 1296 464 1296 432
WIRE 1296 464 1248 464
WIRE 1136 480 1136 464
WIRE 1008 496 1008 464
WIRE 1296 512 1296 464
FLAG 1296 592 0
FLAG 1296 432 V+
FLAG 48 400 0
FLAG 864 224 V+
FLAG 864 288 0
FLAG 944 464 Vref
FLAG 1136 560 0
FLAG 1008 560 0
FLAG 1408 368 Vref
FLAG 1792 208 V+
FLAG 1792 272 0
FLAG 784 368 Vref
FLAG 320 224 V+
FLAG 320 288 0
FLAG 576 544 Vref
FLAG 400 544 Vref
FLAG 1184 224 V+
FLAG 1184 288 0
FLAG 1008 176 Vref
FLAG 496 32 Vref
FLAG 2176 192 V+
FLAG 2176 256 0
FLAG 2112 336 Vref
FLAG 2336 352 Vref
FLAG 2544 176 V+
FLAG 2544 240 0
FLAG 1728 368 Vref
FLAG 1568 432 Vref
FLAG 256 368 Vref
SYMBOL voltage 1296 496 R0
WINDOW 123 0 0 Left 2
WINDOW 39 0 0 Left 2
SYMATTR InstName V1
SYMATTR Value 9
SYMBOL voltage 48 304 R0
WINDOW 123 24 124 Left 2
WINDOW 39 0 0 Left 2
SYMATTR Value2 AC 1
SYMATTR InstName V2
SYMATTR Value SINE(0 1 1000)
SYMBOL EXTRA\\AudioOpamp\\TI\\TL072_TI 864 256 R0
SYMATTR InstName U1
SYMBOL res 1264 448 R90
WINDOW 0 0 56 VBottom 2
WINDOW 3 32 56 VTop 2
SYMATTR InstName R1
SYMATTR Value 10k
SYMBOL res 1152 576 R180
WINDOW 0 36 76 Left 2
WINDOW 3 36 40 Left 2
SYMATTR InstName R2
SYMATTR Value 10k
SYMBOL cap 992 496 R0
SYMATTR InstName C1
SYMATTR Value 220µ
SYMBOL cap 688 256 R90
WINDOW 0 0 32 VBottom 2
WINDOW 3 32 32 VTop 2
SYMATTR InstName C2
SYMATTR Value 22n
SYMBOL cap 896 112 R90
WINDOW 0 0 32 VBottom 2
WINDOW 3 32 32 VTop 2
SYMATTR InstName C3
SYMATTR Value 220p
SYMBOL res 912 16 R90
WINDOW 0 0 56 VBottom 2
WINDOW 3 32 56 VTop 2
SYMATTR InstName R3
SYMATTR Value 330k
SYMBOL res 1392 240 R90
WINDOW 0 0 56 VBottom 2
WINDOW 3 32 56 VTop 2
SYMATTR InstName R5
SYMATTR Value 10k
SYMBOL res 1424 384 R180
WINDOW 0 36 76 Left 2
WINDOW 3 36 40 Left 2
SYMATTR InstName R6
SYMATTR Value 22k
SYMBOL res 1424 272 R270
WINDOW 0 32 56 VTop 2
WINDOW 3 0 56 VBottom 2
SYMATTR InstName R7
SYMATTR Value 22k
SYMBOL res 1552 256 R0
SYMATTR InstName R8
SYMATTR Value 10k
SYMBOL cap 1552 368 R0
SYMATTR InstName C4
SYMATTR Value 33n
SYMBOL res 1712 240 R90
WINDOW 0 0 56 VBottom 2
WINDOW 3 32 56 VTop 2
SYMATTR InstName R9
SYMATTR Value 22k
SYMBOL EXTRA\\AudioOpamp\\TI\\TL072_TI 1792 240 R0
SYMATTR InstName U2
SYMBOL cap 1712 304 R0
SYMATTR InstName C5
SYMATTR Value 470p
SYMBOL cap 1680 128 R90
WINDOW 0 0 32 VBottom 2
WINDOW 3 32 32 VTop 2
SYMATTR InstName C7
SYMATTR Value 10n
SYMBOL res 768 272 R0
SYMATTR InstName R10
SYMATTR Value 100k
SYMBOL EXTRA\\AudioOpamp\\TI\\TL072_TI 320 256 R0
SYMATTR InstName U3
SYMBOL res 544 256 R90
WINDOW 0 0 56 VBottom 2
WINDOW 3 32 56 VTop 2
SYMATTR InstName R11
SYMATTR Value 100k
SYMBOL cap 384 320 R0
SYMATTR InstName C8
SYMATTR Value 22n
SYMBOL cap 560 320 R0
SYMATTR InstName C9
SYMATTR Value 22n
SYMBOL cap 512 400 R90
WINDOW 0 0 32 VBottom 2
WINDOW 3 32 32 VTop 2
SYMATTR InstName C10
SYMATTR Value 22n
SYMBOL res 416 560 R180
WINDOW 0 36 76 Left 2
WINDOW 3 36 40 Left 2
SYMATTR InstName R12
SYMATTR Value 2.2k
SYMBOL res 592 560 R180
WINDOW 0 36 76 Left 2
WINDOW 3 36 40 Left 2
SYMATTR InstName R13
SYMATTR Value 22k
SYMBOL EXTRA\\AudioOpamp\\TI\\TL072_TI 1184 256 R0
SYMATTR InstName U4
SYMBOL cap 1216 112 R90
WINDOW 0 0 32 VBottom 2
WINDOW 3 32 32 VTop 2
SYMATTR InstName C11
SYMATTR Value 220p
SYMBOL res 1232 16 R90
WINDOW 0 0 56 VBottom 2
WINDOW 3 32 56 VTop 2
SYMATTR InstName R14
SYMATTR Value 330k
SYMBOL pot 992 64 R0
SYMATTR InstName U5
SYMATTR Value R=100k
SYMATTR Value2 W=0.05
SYMBOL cap 736 16 R90
WINDOW 0 0 32 VBottom 2
WINDOW 3 32 32 VTop 2
SYMATTR InstName C12
SYMATTR Value 10n
SYMBOL pot 640 16 R90
SYMATTR InstName U6
SYMATTR Value R=100k
SYMATTR Value2 W=0.05
SYMBOL res 1984 224 R90
WINDOW 0 0 56 VBottom 2
WINDOW 3 32 56 VTop 2
SYMATTR InstName R4
SYMATTR Value 33k
SYMBOL res 2096 224 R90
WINDOW 0 0 56 VBottom 2
WINDOW 3 32 56 VTop 2
SYMATTR InstName R15
SYMATTR Value 33k
SYMBOL cap 2096 272 R0
SYMATTR InstName C13
SYMATTR Value 1.2n
SYMBOL cap 2080 112 R90
WINDOW 0 0 32 VBottom 2
WINDOW 3 32 32 VTop 2
SYMATTR InstName C14
SYMATTR Value 2.2n
SYMBOL res 2384 112 R90
WINDOW 0 0 56 VBottom 2
WINDOW 3 32 56 VTop 2
SYMATTR InstName R16
SYMATTR Value 22k
SYMBOL cap 2320 208 R90
WINDOW 0 0 32 VBottom 2
WINDOW 3 32 32 VTop 2
SYMATTR InstName C15
SYMATTR Value 22n
SYMBOL cap 2416 208 R90
WINDOW 0 0 32 VBottom 2
WINDOW 3 32 32 VTop 2
SYMATTR InstName C16
SYMATTR Value 47n
SYMBOL res 2320 256 R0
SYMATTR InstName R17
SYMATTR Value 6.2k
SYMBOL cap 2704 192 R90
WINDOW 0 0 32 VBottom 2
WINDOW 3 32 32 VTop 2
SYMATTR InstName C17
SYMATTR Value 47n
SYMBOL EXTRA\\AudioOpamp\\TI\\TL072_TI 2176 224 R0
SYMATTR InstName U7
SYMBOL EXTRA\\AudioOpamp\\TI\\TL072_TI 2544 208 R0
SYMATTR InstName U8
SYMBOL cap 128 256 R90
WINDOW 0 0 32 VBottom 2
WINDOW 3 32 32 VTop 2
SYMATTR InstName C6
SYMATTR Value 22n
SYMBOL res 240 256 R90
WINDOW 0 0 56 VBottom 2
WINDOW 3 32 56 VTop 2
SYMATTR InstName R18
SYMATTR Value 10k
SYMBOL res 240 272 R0
SYMATTR InstName R19
SYMATTR Value 1Meg
TEXT 616 480 Left 2 !;tran 0 30m 10m 1u
TEXT 624 520 Left 2 !.ac dec 10000 10 10000
