Version 4
SHEET 1 4084 868
WIRE 336 -320 288 -320
WIRE 464 -320 416 -320
WIRE 544 -320 464 -320
WIRE 576 -320 544 -320
WIRE 672 -320 656 -320
WIRE 768 -320 736 -320
WIRE 128 -304 128 -320
WIRE 128 -304 16 -304
WIRE 464 -304 464 -320
WIRE 288 -288 288 -320
WIRE 16 -272 16 -304
WIRE 704 -256 704 -288
WIRE 768 -256 768 -320
WIRE 768 -256 704 -256
WIRE 128 -240 128 -304
WIRE 16 -208 16 -240
WIRE 464 -192 464 -224
WIRE 544 -160 544 -320
WIRE 640 -160 544 -160
WIRE 768 -160 768 -256
WIRE 768 -160 704 -160
WIRE 112 -64 80 -64
WIRE 224 -64 192 -64
WIRE 544 -64 544 -160
WIRE 640 -64 544 -64
WIRE 768 -64 768 -160
WIRE 768 -64 704 -64
WIRE 80 -48 80 -64
WIRE 224 16 224 -64
WIRE 544 16 544 -64
WIRE 640 16 544 16
WIRE 768 16 768 -64
WIRE 768 16 704 16
WIRE 192 48 160 48
WIRE 1216 64 1136 64
WIRE 160 96 160 48
WIRE 224 96 224 80
WIRE 224 96 160 96
WIRE 1136 96 1136 64
WIRE 544 112 544 16
WIRE 640 112 544 112
WIRE 768 128 768 16
WIRE 768 128 704 128
WIRE 784 128 768 128
WIRE 864 128 848 128
WIRE 960 128 944 128
WIRE 992 128 960 128
WIRE 1104 128 1072 128
WIRE 1216 128 1216 64
WIRE 1216 128 1168 128
WIRE 1264 128 1216 128
WIRE 1360 128 1360 112
WIRE 1360 128 1328 128
WIRE 1504 128 1360 128
WIRE 224 144 224 96
WIRE 224 144 112 144
WIRE 272 144 224 144
WIRE 368 144 352 144
WIRE 464 144 464 128
WIRE 464 144 432 144
WIRE 640 144 464 144
WIRE 1216 144 1216 128
WIRE 1360 144 1360 128
WIRE 1616 144 1568 144
WIRE 1648 144 1616 144
WIRE 1744 144 1712 144
WIRE 1856 144 1824 144
WIRE 224 160 224 144
WIRE 464 160 464 144
WIRE 1504 160 1440 160
WIRE 1856 176 1856 144
WIRE 112 192 112 144
WIRE 1072 208 1024 208
WIRE 1952 208 1888 208
WIRE 1440 256 1440 160
WIRE 1504 256 1440 256
WIRE 1616 256 1616 144
WIRE 1616 256 1584 256
WIRE 960 272 960 128
WIRE 960 272 944 272
WIRE 976 272 960 272
WIRE 1440 272 1440 256
WIRE 944 288 944 272
WIRE 1024 336 1024 304
WIRE 1072 336 1072 208
WIRE 1072 336 1024 336
WIRE 1440 368 1440 352
WIRE 896 416 896 352
WIRE 944 416 944 384
WIRE 944 416 896 416
WIRE 1024 416 1024 336
WIRE 1024 416 944 416
WIRE 1024 448 1024 416
WIRE 1264 448 1024 448
WIRE 1440 448 1440 432
WIRE 1440 448 1328 448
FLAG 112 272 0
FLAG 128 -160 0
FLAG 16 -208 0
FLAG 128 -320 V+
FLAG 80 -48 0
FLAG 224 240 0
FLAG 464 48 V+
FLAG 464 240 0
FLAG 672 160 0
FLAG 672 96 V+
FLAG 288 -224 0
FLAG 464 -128 0
FLAG 1216 208 0
FLAG 1360 224 0
FLAG 1360 32 V+
FLAG 1536 112 0
FLAG 1536 176 V+
FLAG 1856 240 0
FLAG 1296 480 0
SYMBOL voltage 112 176 R0
WINDOW 0 -80 19 Left 2
WINDOW 3 -241 66 Left 2
WINDOW 123 -112 100 Left 2
WINDOW 39 0 0 Left 2
SYMATTR InstName V1
SYMATTR Value SINE(0 1 1000)
SYMATTR Value2 AC 1
SYMBOL voltage 128 -256 R0
WINDOW 123 0 0 Left 2
WINDOW 39 0 0 Left 2
SYMATTR InstName V2
SYMATTR Value 9
SYMBOL cap 0 -272 R0
SYMATTR InstName C9
SYMATTR Value 220µ
SYMBOL res 208 144 R0
SYMATTR InstName R1
SYMATTR Value 2Meg
SYMBOL res 368 128 R90
WINDOW 0 0 56 VBottom 2
WINDOW 3 32 56 VTop 2
SYMATTR InstName R2
SYMATTR Value 15k
SYMBOL res 208 -80 R90
WINDOW 0 0 56 VBottom 2
WINDOW 3 32 56 VTop 2
SYMATTR InstName R3
SYMATTR Value 15k
SYMBOL cap 432 128 R90
WINDOW 0 0 32 VBottom 2
WINDOW 3 32 32 VTop 2
SYMATTR InstName C1
SYMATTR Value 4.7n
SYMBOL res 448 144 R0
SYMATTR InstName R4
SYMATTR Value 470k
SYMBOL res 448 32 R0
SYMATTR InstName R5
SYMATTR Value 470k
SYMBOL MyLib\\tlc2272 672 64 R0
SYMATTR InstName U1
SYMBOL cap 704 0 R90
WINDOW 0 0 32 VBottom 2
WINDOW 3 32 32 VTop 2
SYMATTR InstName C2
SYMATTR Value 100p
SYMBOL diode 704 -176 R90
WINDOW 0 0 32 VBottom 2
WINDOW 3 32 32 VTop 2
SYMATTR InstName D1
SYMATTR Value LED1
SYMBOL cap 848 112 R90
WINDOW 0 0 32 VBottom 2
WINDOW 3 32 32 VTop 2
SYMATTR InstName C3
SYMATTR Value 1µ
SYMBOL res 672 -336 R90
WINDOW 0 0 56 VBottom 2
WINDOW 3 32 56 VTop 2
SYMATTR InstName R6
SYMATTR Value 47k
SYMBOL res 432 -336 R90
WINDOW 0 0 56 VBottom 2
WINDOW 3 32 56 VTop 2
SYMATTR InstName R7
SYMATTR Value 3k
SYMBOL res 480 -208 R180
WINDOW 0 36 76 Left 2
WINDOW 3 36 40 Left 2
SYMATTR InstName R8
SYMATTR Value 1.2k
SYMBOL cap 448 -192 R0
SYMATTR InstName C4
SYMATTR Value 100n
SYMBOL cap 272 -288 R0
SYMATTR InstName C5
SYMATTR Value 1µ
SYMBOL res 960 112 R90
WINDOW 0 0 56 VBottom 2
WINDOW 3 32 56 VTop 2
SYMATTR InstName R9
SYMATTR Value 470
SYMBOL res 1088 112 R90
WINDOW 0 0 56 VBottom 2
WINDOW 3 32 56 VTop 2
SYMATTR InstName R10
SYMATTR Value 620
SYMBOL pot 1104 144 R270
SYMATTR InstName U3
SYMATTR Value R=2.5k
SYMATTR Value2 W=0.5
SYMBOL cap 1200 144 R0
SYMATTR InstName C6
SYMATTR Value 100n
SYMBOL cap 1328 112 R90
WINDOW 0 0 32 VBottom 2
WINDOW 3 32 32 VTop 2
SYMATTR InstName C7
SYMATTR Value 220n
SYMBOL res 1344 16 R0
SYMATTR InstName R11
SYMATTR Value 47k
SYMBOL res 1344 128 R0
SYMATTR InstName R12
SYMATTR Value 47k
SYMBOL MyLib\\tlc2272 1536 208 M180
SYMATTR InstName U5
SYMBOL res 1600 240 R90
WINDOW 0 0 56 VBottom 2
WINDOW 3 32 56 VTop 2
SYMATTR InstName R13
SYMATTR Value 2k
SYMBOL cap 1712 128 R90
WINDOW 0 0 32 VBottom 2
WINDOW 3 32 32 VTop 2
SYMATTR InstName C8
SYMATTR Value 1µ
SYMBOL res 1840 128 R90
WINDOW 0 0 56 VBottom 2
WINDOW 3 32 56 VTop 2
SYMATTR InstName R14
SYMATTR Value 5.1k
SYMBOL pot 1840 176 R0
SYMATTR InstName U6
SYMATTR Value R=50k
SYMATTR Value2 W=0.5
SYMBOL res 1424 256 R0
SYMATTR InstName R15
SYMATTR Value 1k
SYMBOL cap 1424 368 R0
SYMATTR InstName C10
SYMATTR Value 47n
SYMBOL pot 1328 432 R90
SYMATTR InstName U7
SYMATTR Value R=1k
SYMATTR Value2 W=0.5
SYMBOL njf 896 288 R0
SYMATTR InstName J1
SYMATTR Value 2N3819
SYMBOL njf 976 208 R0
SYMATTR InstName J2
SYMATTR Value 2N3819
SYMBOL pot 240 80 R180
SYMATTR InstName U8
SYMATTR Value R=1Meg
SYMATTR Value2 W=0.5
SYMBOL pot 736 -336 R90
SYMATTR InstName U2
SYMATTR Value R=1Meg
SYMATTR Value2 W=0.5
SYMBOL diode 640 -48 R270
WINDOW 0 32 32 VTop 2
WINDOW 3 0 32 VBottom 2
SYMATTR InstName D2
SYMATTR Value LED1
TEXT 144 288 Left 2 !.ac dec 500 10 10000
TEXT 144 336 Left 2 !;tran 0 20m 10m
TEXT 408 288 Left 2 !;.step param W 0 1 0.1
