Version 4
SHEET 1 2788 680
WIRE 240 -272 240 -304
WIRE 320 -272 240 -272
WIRE 400 -272 320 -272
WIRE 320 -256 320 -272
WIRE 400 -256 400 -272
WIRE 240 -224 240 -272
WIRE 400 -160 400 -176
WIRE 496 -160 400 -160
WIRE 528 -160 496 -160
WIRE 400 -144 400 -160
WIRE 496 -144 496 -160
WIRE 752 -128 736 -128
WIRE 864 -128 816 -128
WIRE 1408 -64 1408 -96
WIRE 1456 -64 1408 -64
WIRE 1648 -64 1520 -64
WIRE 1760 -64 1728 -64
WIRE 1824 -64 1760 -64
WIRE 656 -48 656 -80
WIRE 736 -48 736 -128
WIRE 736 -48 656 -48
WIRE 880 -48 800 -48
WIRE 992 -48 944 -48
WIRE 1408 -32 1408 -64
WIRE 656 -16 656 -48
WIRE 1760 -16 1760 -64
WIRE 800 0 800 -48
WIRE 992 0 992 -48
WIRE 1104 32 1024 32
WIRE 1200 32 1168 32
WIRE 1296 32 1200 32
WIRE 1360 32 1296 32
WIRE 416 48 368 48
WIRE 512 48 480 48
WIRE 608 48 512 48
WIRE 1200 64 1200 32
WIRE 1296 64 1296 32
WIRE 1584 64 1584 32
WIRE 512 80 512 48
WIRE 1408 80 1408 64
WIRE 1488 80 1408 80
WIRE 368 96 368 48
WIRE 656 96 656 80
WIRE 736 96 656 96
WIRE 1408 96 1408 80
WIRE 1488 96 1488 80
WIRE 656 112 656 96
WIRE 736 112 736 96
WIRE 800 112 800 80
WIRE 880 112 800 112
WIRE 992 112 992 64
WIRE 992 112 944 112
WIRE 336 128 144 128
WIRE 992 160 992 112
WIRE 144 176 144 128
WIRE 368 192 368 160
WIRE 1072 192 1024 192
WIRE 800 272 800 112
WIRE 880 272 800 272
WIRE 992 272 992 224
WIRE 992 272 944 272
WIRE 1072 272 1072 192
WIRE 1072 272 992 272
WIRE 992 320 992 272
FLAG 144 256 0
FLAG 240 -144 0
FLAG 400 -64 0
FLAG 496 -80 0
FLAG 320 -192 0
FLAG 240 -304 V+
FLAG 528 -160 Vref
FLAG 368 192 0
FLAG 656 192 0
FLAG 736 176 0
FLAG 1200 128 0
FLAG 1408 176 0
FLAG 1488 160 0
FLAG 1584 128 0
FLAG 1760 64 0
FLAG 656 -160 V+
FLAG 1408 -176 V+
FLAG 992 400 0
FLAG 512 160 0
FLAG 1296 144 0
SYMBOL voltage 144 160 R0
WINDOW 0 -80 16 Left 2
WINDOW 3 -221 80 Left 2
WINDOW 123 -108 110 Left 2
WINDOW 39 0 0 Left 2
SYMATTR InstName V1
SYMATTR Value SINE(0 2 1000)
SYMATTR Value2 AC 1
SYMBOL cap 304 -256 R0
SYMATTR InstName C12
SYMATTR Value 220µ
SYMBOL res 384 -272 R0
SYMATTR InstName R10
SYMATTR Value 10k
SYMBOL res 384 -160 R0
SYMATTR InstName R11
SYMATTR Value 10k
SYMBOL cap 480 -144 R0
SYMATTR InstName C13
SYMATTR Value 47µ
SYMBOL voltage 240 -240 R0
WINDOW 123 0 0 Left 2
WINDOW 39 0 0 Left 2
SYMATTR InstName V2
SYMATTR Value 9
SYMBOL pot 384 160 R180
SYMATTR InstName U1
SYMATTR Value R=500k
SYMATTR Value2 W=0.5
SYMBOL cap 480 32 R90
WINDOW 0 0 32 VBottom 2
WINDOW 3 32 32 VTop 2
SYMATTR InstName C1
SYMATTR Value 100n
SYMBOL res 496 64 R0
SYMATTR InstName R1
SYMATTR Value 1Meg
SYMBOL njf 608 -16 R0
SYMATTR InstName J1
SYMATTR Value J201_0.8
SYMBOL res 640 96 R0
SYMATTR InstName R2
SYMATTR Value 4.7k
SYMBOL cap 720 112 R0
SYMATTR InstName C2
SYMATTR Value 50µ
SYMBOL res 640 -176 R0
SYMATTR InstName R3
SYMATTR Value 2.2k
SYMBOL res 784 -16 R0
SYMATTR InstName R4
SYMATTR Value 10k
SYMBOL cap 944 -64 R90
WINDOW 0 0 32 VBottom 2
WINDOW 3 32 32 VTop 2
SYMATTR InstName C3
SYMATTR Value 2.5n
SYMBOL cap 944 96 R90
WINDOW 0 0 32 VBottom 2
WINDOW 3 32 32 VTop 2
SYMATTR InstName C4
SYMATTR Value 1µ
SYMBOL cap 944 256 R90
WINDOW 0 0 32 VBottom 2
WINDOW 3 32 32 VTop 2
SYMATTR InstName C5
SYMATTR Value 470n
SYMBOL pot 976 0 R0
SYMATTR InstName U2
SYMATTR Value R=25k
SYMATTR Value2 W=0.5
SYMBOL pot 976 160 R0
SYMATTR InstName U3
SYMATTR Value R=25k
SYMATTR Value2 W=0.5
SYMBOL res 976 304 R0
SYMATTR InstName R5
SYMATTR Value 750
SYMBOL cap 1168 16 R90
WINDOW 0 0 32 VBottom 2
WINDOW 3 32 32 VTop 2
SYMATTR InstName C6
SYMATTR Value 100n
SYMBOL cap 1184 64 R0
SYMATTR InstName C7
SYMATTR Value 300p
SYMBOL res 1280 48 R0
SYMATTR InstName R6
SYMATTR Value 1Meg
SYMBOL njf 1360 -32 R0
SYMATTR InstName J2
SYMATTR Value 2N5457
SYMBOL res 1392 80 R0
SYMATTR InstName R7
SYMATTR Value 5k
SYMBOL cap 1472 96 R0
SYMATTR InstName C8
SYMATTR Value 50µ
SYMBOL res 1392 -192 R0
SYMATTR InstName R8
SYMATTR Value 14k
SYMBOL cap 1520 -80 R90
WINDOW 0 0 32 VBottom 2
WINDOW 3 32 32 VTop 2
SYMATTR InstName C9
SYMATTR Value 4.7µ
SYMBOL res 1744 -80 R90
WINDOW 0 0 56 VBottom 2
WINDOW 3 32 56 VTop 2
SYMATTR InstName R9
SYMATTR Value 1k
SYMBOL res 1744 -32 R0
SYMATTR InstName R12
SYMATTR Value 100k
SYMBOL zener 1568 -32 R0
SYMATTR InstName D1
SYMATTR Value BZX84C12L
SYMBOL zener 1600 128 R180
WINDOW 0 -56 62 Left 2
WINDOW 3 -137 3 Left 2
SYMATTR InstName D2
SYMATTR Value BZX84C12L
SYMBOL cap 816 -144 R90
WINDOW 0 0 32 VBottom 2
WINDOW 3 32 32 VTop 2
SYMATTR InstName C10
SYMATTR Value 100n
TEXT 944 -272 Left 2 !.tran 0 20m 10m
TEXT 944 -232 Left 2 !;ac dec 1000 10 10000
TEXT 944 -192 Left 2 !;.step param W 0 1 0.1
