Version 4
SHEET 1 1492 680
WIRE 1168 -368 960 -368
WIRE 1168 -320 1168 -368
WIRE 960 -304 960 -368
WIRE 1328 -288 1200 -288
WIRE 1328 -224 1328 -288
WIRE 1488 -192 1360 -192
WIRE 1168 -144 1168 -256
WIRE 1168 -144 960 -144
WIRE 208 -80 208 -96
WIRE 208 -80 176 -80
WIRE 304 -80 208 -80
WIRE 960 -80 960 -144
WIRE 80 -64 80 -112
WIRE 208 -64 208 -80
WIRE 304 -64 304 -80
WIRE 576 -48 528 -48
WIRE 576 -32 576 -48
WIRE 656 0 608 0
WIRE 768 0 736 0
WIRE 528 64 528 -48
WIRE 576 64 576 32
WIRE 576 64 528 64
WIRE 288 96 80 96
WIRE 288 144 288 96
WIRE 80 160 80 96
WIRE 336 176 320 176
WIRE 416 176 400 176
WIRE 528 176 528 64
WIRE 528 176 496 176
WIRE 560 176 528 176
WIRE 768 192 768 0
WIRE 768 192 624 192
WIRE 784 192 768 192
WIRE 864 192 848 192
WIRE 928 192 864 192
WIRE 560 208 528 208
WIRE 864 208 864 192
WIRE 528 304 528 208
WIRE 288 320 288 208
WIRE 288 320 80 320
WIRE 80 384 80 320
FLAG 80 240 0
FLAG 80 16 0
FLAG 80 -112 V+
FLAG 592 160 V+
FLAG 592 224 0
FLAG 208 16 0
FLAG 304 0 0
FLAG 208 -176 V+
FLAG 176 -80 Vref
FLAG 528 304 Vref
FLAG 864 288 0
FLAG 80 464 0
FLAG 960 -224 0
FLAG 960 0 0
FLAG 1328 -160 0
SYMBOL voltage 80 144 R0
WINDOW 123 24 124 Left 2
WINDOW 39 0 0 Left 2
SYMATTR Value2 AC 1
SYMATTR InstName V1
SYMATTR Value SINE(0 1 250)
SYMBOL voltage 80 -80 R0
WINDOW 123 0 0 Left 2
WINDOW 39 0 0 Left 2
SYMATTR InstName V2
SYMATTR Value 9
SYMBOL pot 272 144 R0
SYMATTR InstName U1
SYMATTR Value R=100k
SYMATTR Value2 W={W}
SYMBOL EXTRA\\AudioOpamp\\TI\\TL072_TI 592 192 R0
SYMATTR InstName U3
SYMBOL cap 400 160 R90
WINDOW 0 0 32 VBottom 2
WINDOW 3 32 32 VTop 2
SYMATTR InstName C1
SYMATTR Value 10µ
SYMBOL res 192 -192 R0
SYMATTR InstName R2
SYMATTR Value 10k
SYMBOL res 192 -80 R0
SYMATTR InstName R3
SYMATTR Value 10k
SYMBOL cap 288 -64 R0
SYMATTR InstName C2
SYMATTR Value 100µ
SYMBOL cap 848 176 R90
WINDOW 0 0 32 VBottom 2
WINDOW 3 32 32 VTop 2
SYMATTR InstName C3
SYMATTR Value 10µ
SYMBOL res 848 192 R0
SYMATTR InstName R6
SYMATTR Value 10k
SYMBOL voltage 80 368 R0
WINDOW 123 24 124 Left 2
WINDOW 39 0 0 Left 2
SYMATTR Value2 AC 1
SYMATTR InstName V3
SYMATTR Value SINE(0 1 500)
SYMBOL res 512 160 R90
WINDOW 0 0 56 VBottom 2
WINDOW 3 32 56 VTop 2
SYMATTR InstName R1
SYMATTR Value 47k
SYMBOL res 752 -16 R90
WINDOW 0 0 56 VBottom 2
WINDOW 3 32 56 VTop 2
SYMATTR InstName R4
SYMATTR Value 47k
SYMBOL pot 560 -32 R0
SYMATTR InstName U2
SYMATTR Value R=100k
SYMATTR Value2 W={W}
SYMBOL voltage 960 -320 R0
WINDOW 123 24 124 Left 2
WINDOW 39 0 0 Left 2
SYMATTR Value2 AC 1
SYMATTR InstName V4
SYMATTR Value SINE(0 1 250)
SYMBOL pot 1152 -320 R0
SYMATTR InstName U4
SYMATTR Value2 W={W}
SYMBOL voltage 960 -96 R0
WINDOW 123 24 124 Left 2
WINDOW 39 0 0 Left 2
SYMATTR Value2 AC 1
SYMATTR InstName V5
SYMATTR Value SINE(0 1 500)
SYMBOL pot 1312 -224 R0
SYMATTR InstName U5
SYMATTR Value R=100k
SYMATTR Value2 W=0.5
TEXT 592 -144 Left 2 !.tran 0 30m 20m
TEXT 592 -104 Left 2 !;ac dec 500 10 10000
TEXT 592 -72 Left 2 !.step param W 0 1 0.1
