Version 4
SHEET 1 2164 680
WIRE 656 -160 656 -208
WIRE 720 -160 720 -208
WIRE 992 -160 992 -208
WIRE 1056 -160 1056 -208
WIRE 592 -112 592 -208
WIRE 656 -112 656 -160
WIRE 928 -112 928 -208
WIRE 992 -112 992 -160
WIRE 592 -48 592 -112
WIRE 624 -48 592 -48
WIRE 720 -48 720 -160
WIRE 720 -48 688 -48
WIRE 928 -48 928 -112
WIRE 960 -48 928 -48
WIRE 1056 -48 1056 -160
WIRE 1056 -48 1024 -48
WIRE 1376 -32 1360 -32
WIRE 1376 -16 1376 -32
WIRE 176 0 144 0
WIRE 272 0 240 0
WIRE 1536 16 1536 0
WIRE 1584 16 1536 16
WIRE 1728 16 1648 16
WIRE 592 32 592 -48
WIRE 608 32 592 32
WIRE 720 32 720 -48
WIRE 720 32 688 32
WIRE 816 32 784 32
WIRE 928 32 928 -48
WIRE 928 32 896 32
WIRE 944 32 928 32
WIRE 1056 32 1056 -48
WIRE 1056 32 1024 32
WIRE 1120 32 1056 32
WIRE 1152 32 1120 32
WIRE 1280 32 1280 -32
WIRE 1280 32 1216 32
WIRE 1536 32 1536 16
WIRE 1280 48 1280 32
WIRE 272 64 272 0
WIRE 304 64 272 64
WIRE 384 64 368 64
WIRE 720 80 720 32
WIRE 720 80 672 80
WIRE 1056 80 1056 32
WIRE 1056 80 1008 80
WIRE 1344 80 1312 80
WIRE 1440 80 1440 64
WIRE 1440 80 1408 80
WIRE 1472 80 1440 80
WIRE 1728 80 1728 16
WIRE 144 96 144 0
WIRE 160 96 144 96
WIRE 272 96 272 64
WIRE 272 96 240 96
WIRE 384 96 384 64
WIRE 1440 96 1440 80
WIRE 272 112 272 96
WIRE 1840 112 1760 112
WIRE 432 128 416 128
WIRE 592 128 592 32
WIRE 592 128 576 128
WIRE 608 128 592 128
WIRE 928 128 928 32
WIRE 944 128 928 128
WIRE 1120 128 1120 32
WIRE 1136 128 1120 128
WIRE 1280 128 1280 112
WIRE 1280 128 1216 128
WIRE -32 160 -64 160
WIRE 80 160 48 160
WIRE 144 160 144 96
WIRE 208 160 144 160
WIRE 592 160 592 128
WIRE 928 160 928 128
WIRE 1280 160 1280 128
WIRE 1536 160 1536 128
WIRE 1728 160 1728 144
WIRE 144 176 144 160
WIRE 384 192 384 160
WIRE 672 192 672 176
WIRE 1008 192 1008 176
WIRE 272 224 272 208
WIRE -64 256 -64 160
FLAG 144 -80 0
FLAG 144 -160 V+
FLAG -64 336 0
FLAG 272 -80 V+
FLAG 144 256 0
FLAG 272 304 0
FLAG 384 272 0
FLAG 592 240 0
FLAG 672 272 0
FLAG 928 240 0
FLAG 1008 272 0
FLAG 720 -288 V+
FLAG 1056 -288 V+
FLAG 1376 -16 0
FLAG 1280 224 0
FLAG 1728 160 0
FLAG 1440 176 0
FLAG 1536 240 0
FLAG 1440 -16 V+
FLAG 1536 -80 V+
SYMBOL voltage -64 240 R0
WINDOW 123 24 124 Left 2
WINDOW 39 0 0 Left 2
SYMATTR Value2 AC 1
SYMATTR InstName V1
SYMATTR Value SINE(0 600m 250)
SYMBOL voltage 144 -176 R0
WINDOW 123 0 0 Left 2
WINDOW 39 0 0 Left 2
SYMATTR InstName V2
SYMATTR Value 9
SYMBOL res 64 144 R90
WINDOW 0 0 56 VBottom 2
WINDOW 3 32 56 VTop 2
SYMATTR InstName R1
SYMATTR Value 3.3k
SYMBOL cap 144 144 R90
WINDOW 0 0 32 VBottom 2
WINDOW 3 32 32 VTop 2
SYMATTR InstName C1
SYMATTR Value 100n
SYMBOL res 128 160 R0
SYMATTR InstName R2
SYMATTR Value 82k
SYMBOL npn 208 112 R0
WINDOW 0 28 19 Left 2
WINDOW 3 19 67 Left 2
SYMATTR InstName Q1
SYMATTR Value 2N3904
SYMBOL res 256 208 R0
SYMATTR InstName R3
SYMATTR Value 820
SYMBOL res 144 112 R270
WINDOW 0 32 56 VTop 2
WINDOW 3 0 56 VBottom 2
SYMATTR InstName R4
SYMATTR Value 390k
SYMBOL res 256 -96 R0
SYMATTR InstName R5
SYMATTR Value 22k
SYMBOL cap 368 48 R90
WINDOW 0 0 32 VBottom 2
WINDOW 3 32 32 VTop 2
SYMATTR InstName C3
SYMATTR Value 100n
SYMBOL pot 368 96 R0
WINDOW 3 -66 27 Left 2
WINDOW 123 -52 55 Left 2
SYMATTR Value R=100k
SYMATTR Value2 W=0.5
SYMATTR InstName U1
SYMBOL res 368 176 R0
SYMATTR InstName R6
SYMATTR Value 1k
SYMBOL res 592 112 R90
WINDOW 0 0 56 VBottom 2
WINDOW 3 32 56 VTop 2
SYMATTR InstName R7
SYMATTR Value 8.2k
SYMBOL npn 608 80 R0
SYMATTR InstName Q2
SYMATTR Value 2N3904
SYMBOL res 704 16 R90
WINDOW 0 0 56 VBottom 2
WINDOW 3 32 56 VTop 2
SYMATTR InstName R8
SYMATTR Value 390k
SYMBOL cap 688 -64 R90
WINDOW 0 -6 -1 VBottom 2
WINDOW 3 23 32 VTop 2
SYMATTR InstName C4
SYMATTR Value 560p
SYMBOL diode 656 -224 R90
WINDOW 0 0 32 VBottom 2
WINDOW 3 32 32 VTop 2
SYMATTR InstName D1
SYMATTR Value 1N914
SYMBOL diode 592 -96 R270
WINDOW 0 32 32 VTop 2
WINDOW 3 0 32 VBottom 2
SYMATTR InstName D2
SYMATTR Value 1N914
SYMBOL cap 720 -176 R90
WINDOW 0 0 32 VBottom 2
WINDOW 3 32 32 VTop 2
SYMATTR InstName C5
SYMATTR Value 50n
SYMBOL res 656 176 R0
SYMATTR InstName R10
SYMATTR Value 150
SYMBOL cap 784 16 R90
WINDOW 0 0 32 VBottom 2
WINDOW 3 32 32 VTop 2
SYMATTR InstName C6
SYMATTR Value 100n
SYMBOL res 912 16 R90
WINDOW 0 0 56 VBottom 2
WINDOW 3 32 56 VTop 2
SYMATTR InstName R11
SYMATTR Value 8.2k
SYMBOL npn 944 80 R0
SYMATTR InstName Q3
SYMATTR Value 2N3904
SYMBOL res 1040 16 R90
WINDOW 0 0 56 VBottom 2
WINDOW 3 32 56 VTop 2
SYMATTR InstName R12
SYMATTR Value 390k
SYMBOL cap 1024 -64 R90
WINDOW 0 5 -5 VBottom 2
WINDOW 3 22 20 VTop 2
SYMATTR InstName C7
SYMATTR Value 560p
SYMBOL diode 992 -224 R90
WINDOW 0 0 32 VBottom 2
WINDOW 3 32 32 VTop 2
SYMATTR InstName D3
SYMATTR Value 1N914
SYMBOL diode 928 -96 R270
WINDOW 0 32 32 VTop 2
WINDOW 3 0 32 VBottom 2
SYMATTR InstName D4
SYMATTR Value 1N914
SYMBOL cap 1056 -176 R90
WINDOW 0 0 32 VBottom 2
WINDOW 3 32 32 VTop 2
SYMATTR InstName C8
SYMATTR Value 50n
SYMBOL res 912 144 R0
SYMATTR InstName R13
SYMATTR Value 82k
SYMBOL res 992 176 R0
SYMATTR InstName R14
SYMATTR Value 820
SYMBOL cap 496 112 R90
WINDOW 0 0 32 VBottom 2
WINDOW 3 32 32 VTop 2
SYMATTR InstName C9
SYMATTR Value 100n
SYMBOL res 704 -304 R0
SYMATTR InstName R15
SYMATTR Value 12k
SYMBOL res 1040 -304 R0
SYMATTR InstName R16
SYMATTR Value 22k
SYMBOL cap 1216 16 R90
WINDOW 0 0 32 VBottom 2
WINDOW 3 32 32 VTop 2
SYMATTR InstName C10
SYMATTR Value 4n
SYMBOL res 1232 112 R90
WINDOW 0 0 56 VBottom 2
WINDOW 3 32 56 VTop 2
SYMATTR InstName R17
SYMATTR Value 39k
SYMBOL res 1376 -48 R90
WINDOW 0 0 56 VBottom 2
WINDOW 3 32 56 VTop 2
SYMATTR InstName R18
SYMATTR Value 39k
SYMBOL cap 1264 160 R0
SYMATTR InstName C11
SYMATTR Value 10n
SYMBOL cap 1408 64 R90
WINDOW 0 0 32 VBottom 2
WINDOW 3 32 32 VTop 2
SYMATTR InstName C12
SYMATTR Value 100n
SYMBOL res 1424 -32 R0
SYMATTR InstName R19
SYMATTR Value 390k
SYMBOL res 1424 80 R0
SYMATTR InstName R20
SYMATTR Value 100k
SYMBOL npn 1472 32 R0
SYMATTR InstName Q4
SYMATTR Value 2N3904
SYMBOL res 1520 144 R0
SYMATTR InstName R21
SYMATTR Value 2.7k
SYMBOL res 1520 -96 R0
SYMATTR InstName R22
SYMATTR Value 12k
SYMBOL cap 1648 0 R90
WINDOW 0 0 32 VBottom 2
WINDOW 3 32 32 VTop 2
SYMATTR InstName C13
SYMATTR Value 100n
SYMBOL pot 1264 48 R0
WINDOW 0 37 35 Left 2
WINDOW 3 -31 -6 Left 2
WINDOW 123 -17 74 Left 2
SYMATTR InstName U4
SYMATTR Value R=100k
SYMATTR Value2 W=0.5
SYMBOL pot 1712 80 R0
WINDOW 0 37 35 Left 2
WINDOW 3 -31 -6 Left 2
WINDOW 123 -17 74 Left 2
SYMATTR InstName U2
SYMATTR Value R=100k
SYMATTR Value2 W=0.5
TEXT 336 -112 Left 2 !;tran 0 30ms 0 1u
TEXT 344 -160 Left 2 !.ac dec 1000 10 10000
TEXT 576 336 Left 2 !;.step param W list 0.05, 0.25, 0.5, 0.75, 0.95
