Version 4
SHEET 1 1696 680
WIRE 944 -192 944 -224
WIRE 1072 -192 944 -192
WIRE 944 -160 944 -192
WIRE 1072 -128 1072 -192
WIRE 288 -64 208 -64
WIRE 400 -64 400 -96
WIRE 400 -64 288 -64
WIRE 288 -32 288 -64
WIRE 400 -32 400 -64
WIRE 208 -16 208 -64
WIRE 1072 0 1072 -48
WIRE 544 16 544 -48
WIRE 592 16 544 16
WIRE 688 16 656 16
WIRE 688 48 688 16
WIRE 544 64 544 16
WIRE 784 80 720 80
WIRE 256 112 144 112
WIRE 304 112 256 112
WIRE 400 112 400 48
WIRE 400 112 368 112
WIRE 464 112 400 112
WIRE 256 144 256 112
WIRE 960 144 912 144
WIRE 1072 144 1072 64
WIRE 1072 144 1024 144
WIRE 1200 144 1072 144
WIRE 1328 144 1200 144
WIRE 1440 144 1392 144
WIRE 1488 144 1440 144
WIRE 1584 144 1568 144
WIRE 912 176 912 144
WIRE 1200 176 1200 144
WIRE 1440 176 1440 144
WIRE 144 192 144 112
WIRE 1584 192 1584 144
WIRE 1632 224 1616 224
WIRE 1072 240 1072 144
WIRE 544 256 544 240
WIRE 624 256 544 256
WIRE 752 256 688 256
WIRE 544 272 544 256
WIRE 912 288 912 256
WIRE 1200 288 1200 256
WIRE 1200 288 1136 288
WIRE 1328 288 1200 288
WIRE 1440 288 1440 240
WIRE 1440 288 1392 288
WIRE 1584 288 1584 256
WIRE 1632 288 1632 224
WIRE 1632 288 1584 288
WIRE 880 320 800 320
WIRE 1584 320 1584 288
WIRE 1440 336 1440 288
WIRE 912 464 912 352
FLAG 144 272 0
FLAG 944 -80 0
FLAG 288 48 0
FLAG 208 48 0
FLAG 256 224 0
FLAG 688 112 0
FLAG 544 352 0
FLAG 752 352 0
FLAG 912 464 0
FLAG 1072 336 0
FLAG 1440 416 0
FLAG 1584 320 0
FLAG 944 -224 V+
FLAG 400 -176 V+
FLAG 544 -128 V+
SYMBOL voltage 144 176 R0
WINDOW 123 24 124 Left 2
WINDOW 39 0 0 Left 2
SYMATTR Value2 AC 1
SYMATTR InstName V1
SYMATTR Value SINE(0 1 1000)
SYMBOL voltage 944 -176 R0
WINDOW 123 0 0 Left 2
WINDOW 39 0 0 Left 2
SYMATTR InstName V2
SYMATTR Value 9
SYMBOL res 240 128 R0
SYMATTR InstName R1
SYMATTR Value 1Meg
SYMBOL cap 368 96 R90
WINDOW 0 0 32 VBottom 2
WINDOW 3 32 32 VTop 2
SYMATTR InstName C1
SYMATTR Value 220n
SYMBOL res 384 -48 R0
SYMATTR InstName R2
SYMATTR Value 1Meg
SYMBOL res 384 -192 R0
SYMATTR InstName R3
SYMATTR Value 81k
SYMBOL res 272 -48 R0
SYMATTR InstName R4
SYMATTR Value 19k
SYMBOL cap 192 -16 R0
SYMATTR InstName C2
SYMATTR Value 47µ
SYMBOL res 528 -144 R0
SYMATTR InstName R5
SYMATTR Value 4.7k
SYMBOL cap 656 0 R90
WINDOW 0 0 32 VBottom 2
WINDOW 3 32 32 VTop 2
SYMATTR InstName C3
SYMATTR Value 1µ
SYMBOL pot 672 48 R0
SYMATTR InstName U1
SYMATTR Value R=100k
SYMATTR Value2 W=0.5
SYMBOL res 528 144 R0
SYMATTR InstName R6
SYMATTR Value 180
SYMBOL res 528 256 R0
SYMATTR InstName R7
SYMATTR Value 1.2k
SYMBOL njf 800 256 M0
SYMATTR InstName J1
SYMATTR Value J201_0.8
SYMBOL pot 928 352 R180
SYMATTR InstName U2
SYMATTR Value R=250k
SYMATTR Value2 W=0.5
SYMBOL res 896 160 R0
SYMATTR InstName R9
SYMATTR Value 120k
SYMBOL cap 1024 128 R90
WINDOW 0 0 32 VBottom 2
WINDOW 3 32 32 VTop 2
SYMATTR InstName C4
SYMATTR Value 470n
SYMBOL npn 1136 240 M0
SYMATTR InstName Q1
SYMATTR Value BC550C
SYMBOL res 1184 160 R0
SYMATTR InstName R10
SYMATTR Value 2.2Meg
SYMBOL cap 1392 128 R90
WINDOW 0 0 32 VBottom 2
WINDOW 3 32 32 VTop 2
SYMATTR InstName C5
SYMATTR Value 1µ
SYMBOL cap 1392 272 R90
WINDOW 0 0 32 VBottom 2
WINDOW 3 32 32 VTop 2
SYMATTR InstName C6
SYMATTR Value 1µ
SYMBOL cap 1456 240 R180
WINDOW 0 24 56 Left 2
WINDOW 3 24 8 Left 2
SYMATTR InstName C7
SYMATTR Value 1µ
SYMBOL res 1424 320 R0
SYMATTR InstName R11
SYMATTR Value 15k
SYMBOL res 1584 128 R90
WINDOW 0 0 56 VBottom 2
WINDOW 3 32 56 VTop 2
SYMATTR InstName R12
SYMATTR Value 1k
SYMBOL pot 1568 192 R0
SYMATTR InstName U3
SYMATTR Value R=100k
SYMATTR Value2 W=0.5
SYMBOL EXTRA\\Philips\\NMOSFET\\2N7000 512 112 R0
SYMATTR InstName U4
SYMBOL res 1056 -144 R0
SYMATTR InstName R13
SYMATTR Value 10k
SYMBOL LED 1056 0 R0
SYMATTR InstName D1
SYMATTR Value LED2
SYMBOL cap 688 240 R90
WINDOW 0 0 32 VBottom 2
WINDOW 3 32 32 VTop 2
SYMATTR InstName C8
SYMATTR Value 22µ
TEXT 1184 -112 Left 2 !.tran 0 2 1
TEXT 1184 -64 Left 2 !;ac dec 500 10 10000
TEXT 1184 -24 Left 2 !.step param W list 0, 0.25, 0.5, 0.75, 1
