Version 4
SHEET 1 1988 736
WIRE 880 -224 784 -224
WIRE 784 -192 784 -224
WIRE 304 -160 224 -160
WIRE 352 -160 304 -160
WIRE 400 -160 352 -160
WIRE 512 -160 512 -240
WIRE 512 -160 480 -160
WIRE 608 -160 512 -160
WIRE 752 -160 608 -160
WIRE 880 -160 880 -224
WIRE 880 -160 816 -160
WIRE 1136 -160 880 -160
WIRE 1200 -160 1136 -160
WIRE 1264 -160 1200 -160
WIRE 1360 -160 1264 -160
WIRE 1504 -160 1360 -160
WIRE 352 -144 352 -160
WIRE 304 -128 304 -160
WIRE 512 -128 512 -160
WIRE 608 -128 608 -160
WIRE 1264 -128 1264 -160
WIRE 1504 -128 1504 -160
WIRE 1200 -96 1200 -160
WIRE 1232 -96 1200 -96
WIRE 1360 -96 1360 -160
WIRE 1376 -96 1360 -96
WIRE 1472 -96 1440 -96
WIRE 304 -48 304 -64
WIRE 352 -48 352 -64
WIRE 608 -48 608 -64
WIRE 1264 -32 1264 -64
WIRE 1264 -32 1040 -32
WIRE 1504 -32 1504 -64
WIRE 1504 -32 1264 -32
WIRE 880 0 880 -160
WIRE 1040 0 1040 -32
WIRE 1136 80 1136 -160
WIRE 480 112 480 80
WIRE 768 128 736 128
WIRE 880 128 880 80
WIRE 880 128 848 128
WIRE 944 128 880 128
WIRE 1040 128 1040 80
WIRE 1040 128 1008 128
WIRE 1072 128 1040 128
WIRE 1264 160 1264 -32
WIRE 224 176 144 176
WIRE 272 176 224 176
WIRE 368 176 336 176
WIRE 432 176 368 176
WIRE 880 192 880 128
WIRE 224 208 224 176
WIRE 368 208 368 176
WIRE 1136 208 1136 176
WIRE 1200 208 1136 208
WIRE 144 224 144 176
WIRE 480 240 480 208
WIRE 576 240 480 240
WIRE 640 240 576 240
WIRE 736 240 736 128
WIRE 736 240 704 240
WIRE 816 240 736 240
WIRE 1136 240 1136 208
WIRE 480 272 480 240
WIRE 1264 288 1264 256
WIRE 880 320 880 288
WIRE 576 336 576 240
WIRE 1136 336 1136 320
WIRE 1184 336 1136 336
WIRE 1136 352 1136 336
WIRE 1184 384 1184 336
WIRE 1184 384 1168 384
WIRE 1264 400 1264 368
WIRE 1776 416 1648 416
WIRE 576 432 576 400
WIRE 1328 432 1296 432
WIRE 1488 432 1392 432
WIRE 1488 480 1488 432
WIRE 1648 480 1648 416
WIRE 1680 480 1648 480
WIRE 688 496 656 496
WIRE 800 496 768 496
WIRE 1776 496 1776 416
WIRE 1776 496 1744 496
WIRE 1808 496 1776 496
WIRE 1904 496 1872 496
WIRE 1968 496 1904 496
WIRE 1552 512 1520 512
WIRE 1648 512 1616 512
WIRE 1680 512 1648 512
WIRE 1904 528 1904 496
WIRE 1648 544 1648 512
WIRE 576 592 576 512
WIRE 656 592 656 496
WIRE 656 592 576 592
WIRE 688 592 656 592
WIRE 800 608 800 496
WIRE 800 608 752 608
WIRE 1328 608 800 608
WIRE 1488 608 1488 544
WIRE 1488 608 1392 608
WIRE 688 624 624 624
FLAG 144 304 0
FLAG 512 -48 0
FLAG 352 -48 0
FLAG 608 -48 0
FLAG 304 -48 0
FLAG 512 -240 V+
FLAG 224 -160 Vref
FLAG 480 80 V+
FLAG 224 288 0
FLAG 1136 416 0
FLAG 1264 464 0
FLAG 880 320 0
FLAG 480 352 0
FLAG 368 288 Vref
FLAG 720 576 V+
FLAG 720 640 0
FLAG 624 624 Vref
FLAG 1648 624 Vref
FLAG 1712 464 V+
FLAG 1712 528 0
FLAG 1904 608 0
SYMBOL voltage 144 208 R0
WINDOW 0 -64 13 Left 2
WINDOW 3 -201 84 Left 2
WINDOW 123 -95 116 Left 2
WINDOW 39 0 0 Left 2
SYMATTR InstName V1
SYMATTR Value SINE(0 1 1000)
SYMATTR Value2 AC 1
SYMBOL voltage 512 -144 R0
WINDOW 123 0 0 Left 2
WINDOW 39 0 0 Left 2
SYMATTR InstName V2
SYMATTR Value 9
SYMBOL cap 592 -128 R0
SYMATTR InstName C1
SYMATTR Value 220µ
SYMBOL res 496 -176 R90
WINDOW 0 0 56 VBottom 2
WINDOW 3 32 56 VTop 2
SYMATTR InstName R1
SYMATTR Value 10k
SYMBOL res 368 -48 R180
WINDOW 0 -40 76 Left 2
WINDOW 3 -42 46 Left 2
SYMATTR InstName R2
SYMATTR Value 10k
SYMBOL cap 288 -128 R0
WINDOW 0 -35 5 Left 2
WINDOW 3 -59 53 Left 2
SYMATTR InstName C2
SYMATTR Value 100µ
SYMBOL res 240 304 R180
WINDOW 0 -40 76 Left 2
WINDOW 3 -72 43 Left 2
SYMATTR InstName R3
SYMATTR Value 1Meg
SYMBOL cap 336 160 R90
WINDOW 0 0 32 VBottom 2
WINDOW 3 32 32 VTop 2
SYMATTR InstName C3
SYMATTR Value 100n
SYMBOL res 384 304 R180
WINDOW 0 -40 76 Left 2
WINDOW 3 -72 43 Left 2
SYMATTR InstName R4
SYMATTR Value 1Meg
SYMBOL njf 432 112 R0
SYMATTR InstName J1
SYMATTR Value J201_0.8
SYMBOL res 464 256 R0
SYMATTR InstName R5
SYMATTR Value 10k
SYMBOL cap 704 224 R90
WINDOW 0 0 32 VBottom 2
WINDOW 3 32 32 VTop 2
SYMATTR InstName C4
SYMATTR Value 10µ
SYMBOL npn 816 192 R0
SYMATTR InstName Q1
SYMATTR Value 2N3904
SYMBOL res 864 112 R90
WINDOW 0 0 56 VBottom 2
WINDOW 3 32 56 VTop 2
SYMATTR InstName R6
SYMATTR Value 220k
SYMBOL res 864 -16 R0
SYMATTR InstName R7
SYMATTR Value 10k
SYMBOL cap 1008 112 R90
WINDOW 0 0 32 VBottom 2
WINDOW 3 32 32 VTop 2
SYMATTR InstName C5
SYMATTR Value 100n
SYMBOL Bipolar\\pnp 1072 176 M180
SYMATTR InstName Q2
SYMATTR Value GEBJTPNP
SYMBOL res 1120 224 R0
SYMATTR InstName R8
SYMATTR Value 470
SYMBOL pot 1120 352 R0
WINDOW 0 -5 7 Right 2
WINDOW 123 0 64 Right 2
SYMATTR InstName U1
SYMATTR Value2 W=0.5
SYMBOL Bipolar\\pnp 1200 256 M180
SYMATTR InstName Q3
SYMATTR Value GEBJTPNP
SYMBOL res 1248 272 R0
SYMATTR InstName R9
SYMATTR Value 5.1k
SYMBOL pot 1248 400 R0
WINDOW 0 -5 7 Right 2
WINDOW 123 0 64 Right 2
SYMATTR InstName U2
SYMATTR Value2 W=0.5
SYMATTR Value R=5k
SYMBOL cap 1392 416 R90
WINDOW 0 0 32 VBottom 2
WINDOW 3 32 32 VTop 2
SYMATTR InstName C6
SYMATTR Value 10µ
SYMBOL pot 752 -144 R270
WINDOW 0 -5 7 Right 2
WINDOW 123 0 64 Right 2
SYMATTR InstName U3
SYMATTR Value2 W=0.5
SYMBOL res 1024 -16 R0
SYMATTR InstName R10
SYMATTR Value 47k
SYMBOL pot 1280 -64 R180
WINDOW 0 -5 7 Right 2
WINDOW 123 0 64 Right 2
SYMATTR InstName U4
SYMATTR Value2 W=0.5
SYMBOL pot 1520 -64 R180
WINDOW 0 -5 7 Right 2
WINDOW 123 0 64 Right 2
SYMATTR InstName U5
SYMBOL cap 1440 -112 R90
WINDOW 0 0 32 VBottom 2
WINDOW 3 32 32 VTop 2
SYMATTR InstName C7
SYMATTR Value 10µ
SYMBOL EXTRA\\AudioOpamp\\TI\\TL072_TI 720 608 R0
SYMATTR InstName U6
SYMBOL cap 560 336 R0
SYMATTR InstName C8
SYMATTR Value 1µ
SYMBOL res 560 416 R0
SYMATTR InstName R11
SYMATTR Value 100k
SYMBOL res 784 480 R90
WINDOW 0 0 56 VBottom 2
WINDOW 3 32 56 VTop 2
SYMATTR InstName R12
SYMATTR Value 100k
SYMBOL cap 1392 592 R90
WINDOW 0 0 32 VBottom 2
WINDOW 3 32 32 VTop 2
SYMATTR InstName C9
SYMATTR Value 10µ
SYMBOL pot 1472 480 R0
WINDOW 0 -5 7 Right 2
WINDOW 123 0 64 Right 2
SYMATTR InstName U7
SYMATTR Value2 W=0.5
SYMATTR Value R=100k
SYMBOL cap 1616 496 R90
WINDOW 0 0 32 VBottom 2
WINDOW 3 32 32 VTop 2
SYMATTR InstName C10
SYMATTR Value 1µ
SYMBOL res 1632 528 R0
SYMATTR InstName R13
SYMATTR Value 100k
SYMBOL EXTRA\\AudioOpamp\\TI\\TL072_TI 1712 496 R0
SYMATTR InstName U8
SYMBOL cap 1872 480 R90
WINDOW 0 0 32 VBottom 2
WINDOW 3 32 32 VTop 2
SYMATTR InstName C11
SYMATTR Value 10µ
SYMBOL res 1888 512 R0
SYMATTR InstName R14
SYMATTR Value 10k
TEXT 1488 56 Left 2 !;tran 0 30m 10m
TEXT 1488 96 Left 2 !.ac dec 500 10 10000
TEXT 1488 136 Left 2 !;.step param W 0 1 0.2
