Version 4
SHEET 1 2868 1256
WIRE -400 -928 -464 -928
WIRE -288 -928 -336 -928
WIRE 736 -928 672 -928
WIRE 848 -928 800 -928
WIRE -368 -832 -368 -896
WIRE -304 -832 -368 -832
WIRE -176 -832 -224 -832
WIRE 768 -832 768 -896
WIRE 832 -832 768 -832
WIRE 960 -832 912 -832
WIRE -368 -800 -368 -832
WIRE 768 -800 768 -832
WIRE -368 -656 -368 -720
WIRE -288 -656 -368 -656
WIRE -176 -656 -208 -656
WIRE -80 -656 -176 -656
WIRE 48 -656 0 -656
WIRE 96 -656 48 -656
WIRE 192 -656 176 -656
WIRE 208 -656 192 -656
WIRE 304 -656 288 -656
WIRE 768 -656 768 -720
WIRE 848 -656 768 -656
WIRE 960 -656 928 -656
WIRE 1056 -656 960 -656
WIRE 1184 -656 1136 -656
WIRE 1232 -656 1184 -656
WIRE 1328 -656 1312 -656
WIRE 1344 -656 1328 -656
WIRE 1440 -656 1424 -656
WIRE 48 -576 48 -656
WIRE 80 -576 48 -576
WIRE 1184 -576 1184 -656
WIRE 1216 -576 1184 -576
WIRE -368 -560 -368 -656
WIRE -288 -560 -368 -560
WIRE 192 -560 192 -656
WIRE 192 -560 144 -560
WIRE 208 -560 192 -560
WIRE 304 -560 288 -560
WIRE 768 -560 768 -656
WIRE 848 -560 768 -560
WIRE 1328 -560 1328 -656
WIRE 1328 -560 1280 -560
WIRE 1344 -560 1328 -560
WIRE 1440 -560 1424 -560
WIRE -176 -544 -176 -656
WIRE -176 -544 -224 -544
WIRE -144 -544 -176 -544
WIRE -32 -544 -64 -544
WIRE 48 -544 32 -544
WIRE 80 -544 48 -544
WIRE 960 -544 960 -656
WIRE 960 -544 912 -544
WIRE 992 -544 960 -544
WIRE 1104 -544 1072 -544
WIRE 1184 -544 1168 -544
WIRE 1216 -544 1184 -544
WIRE -288 -528 -320 -528
WIRE 848 -528 816 -528
WIRE 48 -512 48 -544
WIRE 48 -512 0 -512
WIRE 304 -512 304 -560
WIRE 1184 -512 1184 -544
WIRE 1184 -512 1136 -512
WIRE 1440 -512 1440 -560
WIRE -176 -448 -176 -544
WIRE -144 -448 -176 -448
WIRE -64 -448 -80 -448
WIRE -48 -448 -64 -448
WIRE 48 -448 48 -512
WIRE 48 -448 16 -448
WIRE 960 -448 960 -544
WIRE 992 -448 960 -448
WIRE 1072 -448 1056 -448
WIRE 1088 -448 1072 -448
WIRE 1184 -448 1184 -512
WIRE 1184 -448 1152 -448
WIRE 48 -368 0 -368
WIRE 304 -368 304 -448
WIRE 1184 -368 1136 -368
WIRE 1440 -368 1440 -448
WIRE -64 -336 -64 -448
WIRE -32 -336 -64 -336
WIRE 48 -336 48 -368
WIRE 48 -336 32 -336
WIRE 128 -336 48 -336
WIRE 272 -336 208 -336
WIRE 1072 -336 1072 -448
WIRE 1104 -336 1072 -336
WIRE 1184 -336 1184 -368
WIRE 1184 -336 1168 -336
WIRE 1264 -336 1184 -336
WIRE 1408 -336 1344 -336
WIRE 304 -288 304 -304
WIRE 1440 -288 1440 -304
WIRE 304 -192 304 -208
WIRE 1440 -192 1440 -208
WIRE 1616 -32 1536 -32
WIRE 1616 -16 1616 -32
WIRE 704 80 672 80
WIRE 800 80 704 80
WIRE 880 80 800 80
WIRE -384 96 -448 96
WIRE -272 96 -320 96
WIRE 1616 96 1616 64
WIRE 704 112 704 80
WIRE 880 112 880 80
WIRE 1584 128 1552 128
WIRE 1696 128 1648 128
WIRE 800 144 800 80
WIRE -352 192 -352 128
WIRE -288 192 -352 192
WIRE -160 192 -208 192
WIRE 624 208 592 208
WIRE 704 208 704 192
WIRE 704 208 624 208
WIRE -352 224 -352 192
WIRE 624 224 624 208
WIRE 704 224 704 208
WIRE 1616 224 1536 224
WIRE 1616 240 1616 224
WIRE 1616 352 1616 320
WIRE -352 368 -352 304
WIRE -272 368 -352 368
WIRE -160 368 -192 368
WIRE -64 368 -160 368
WIRE 64 368 16 368
WIRE 112 368 64 368
WIRE 208 368 192 368
WIRE 224 368 208 368
WIRE 320 368 304 368
WIRE 1552 384 1552 128
WIRE 1584 384 1552 384
WIRE 1696 384 1696 128
WIRE 1696 384 1648 384
WIRE 1728 384 1696 384
WIRE 1856 384 1808 384
WIRE 2144 384 2016 384
WIRE 1200 400 1200 288
WIRE 1200 400 1136 400
WIRE 1264 400 1200 400
WIRE 1408 400 1408 288
WIRE 1408 400 1344 400
WIRE 64 448 64 368
WIRE 96 448 64 448
WIRE 976 448 976 368
WIRE 976 448 832 448
WIRE -352 464 -352 368
WIRE -272 464 -352 464
WIRE 208 464 208 368
WIRE 208 464 160 464
WIRE 224 464 208 464
WIRE 320 464 304 464
WIRE 2016 464 2016 384
WIRE 2048 464 2016 464
WIRE -160 480 -160 368
WIRE -160 480 -208 480
WIRE -128 480 -160 480
WIRE -16 480 -48 480
WIRE 64 480 48 480
WIRE 96 480 64 480
WIRE 1696 480 1696 384
WIRE 1744 480 1696 480
WIRE 2144 480 2144 384
WIRE 2144 480 2112 480
WIRE 2176 480 2144 480
WIRE 2336 480 2320 480
WIRE 2384 480 2336 480
WIRE -272 496 -304 496
WIRE 1200 496 1200 400
WIRE 1248 496 1200 496
WIRE 1856 496 1856 384
WIRE 1856 496 1808 496
WIRE 1888 496 1856 496
WIRE 2048 496 1968 496
WIRE 64 512 64 480
WIRE 64 512 16 512
WIRE 320 512 320 464
WIRE 832 512 832 448
WIRE 880 512 832 512
WIRE 1408 512 1408 400
WIRE 1408 512 1312 512
WIRE 1440 512 1408 512
WIRE 1552 512 1552 384
WIRE 1552 512 1520 512
WIRE 1744 512 1552 512
WIRE 2336 512 2336 480
WIRE 976 528 976 448
WIRE 976 528 944 528
WIRE 1024 528 976 528
WIRE 1136 528 1136 400
WIRE 1136 528 1104 528
WIRE 1248 528 1216 528
WIRE 656 544 544 544
WIRE 832 544 720 544
WIRE 880 544 832 544
WIRE 832 560 832 544
WIRE -160 576 -160 480
WIRE -128 576 -160 576
WIRE -48 576 -64 576
WIRE -32 576 -48 576
WIRE 64 576 64 512
WIRE 64 576 32 576
WIRE 1216 576 1216 528
WIRE 544 608 544 544
WIRE 64 656 16 656
WIRE 320 656 320 576
WIRE -48 688 -48 576
WIRE -16 688 -48 688
WIRE 64 688 64 656
WIRE 64 688 48 688
WIRE 144 688 64 688
WIRE 288 688 224 688
WIRE 320 736 320 720
WIRE 320 832 320 816
FLAG 544 688 0
FLAG 800 224 0
FLAG 672 80 V+
FLAG 592 208 Vref
FLAG 880 176 0
FLAG 704 304 0
FLAG 624 288 0
FLAG -272 96 EqIn
FLAG -448 96 EqOut
FLAG 832 640 Vref
FLAG 912 560 0
FLAG 912 496 V+
FLAG 1280 544 0
FLAG 1280 480 V+
FLAG 976 368 EqIn
FLAG 1200 288 EqSmth
FLAG 1408 288 EqOut
FLAG 1216 576 Vref
FLAG 1776 528 0
FLAG 1776 464 V+
FLAG 1472 224 0
FLAG 2080 512 0
FLAG 2080 448 V+
FLAG 2336 592 0
FLAG 1472 -32 0
FLAG -160 192 EqSmth
FLAG -240 448 V+
FLAG -240 512 0
FLAG -304 496 Vref
FLAG 128 432 V+
FLAG 128 496 0
FLAG 320 368 EqSmth
FLAG 320 832 0
FLAG -288 -928 EqIn
FLAG -464 -928 EqOut
FLAG -176 -832 EqSmth
FLAG -256 -576 V+
FLAG -256 -512 0
FLAG -320 -528 Vref
FLAG 112 -592 V+
FLAG 112 -528 0
FLAG 304 -656 EqSmth
FLAG 304 -192 0
FLAG 848 -928 EqIn
FLAG 672 -928 EqOut
FLAG 960 -832 EqSmth
FLAG 880 -576 V+
FLAG 880 -512 0
FLAG 816 -528 Vref
FLAG 1248 -592 V+
FLAG 1248 -528 0
FLAG 1440 -656 EqSmth
FLAG 1440 -192 0
SYMBOL voltage 544 592 R0
WINDOW 123 24 124 Left 2
WINDOW 39 0 0 Left 2
SYMATTR Value2 AC 1
SYMATTR InstName V1
SYMATTR Value SINE(0 1 1000)
SYMBOL voltage 800 128 R0
WINDOW 123 0 0 Left 2
WINDOW 39 0 0 Left 2
SYMATTR InstName V2
SYMATTR Value 9
SYMBOL cap 864 112 R0
SYMATTR InstName C1
SYMATTR Value 220µ
SYMBOL res 688 96 R0
SYMATTR InstName R1
SYMATTR Value 10k
SYMBOL res 688 208 R0
SYMATTR InstName R2
SYMATTR Value 10k
SYMBOL cap 608 224 R0
SYMATTR InstName C2
SYMATTR Value 220µ
SYMBOL pot -320 80 R90
WINDOW 3 -1 -3 Right 2
WINDOW 0 -3 31 Right 2
WINDOW 123 -1 60 Right 2
SYMATTR Value R=20k
SYMATTR InstName U7
SYMATTR Value2 W=0.5
SYMBOL cap 720 528 R90
WINDOW 0 0 32 VBottom 2
WINDOW 3 32 32 VTop 2
SYMATTR InstName C8
SYMATTR Value 100n
SYMBOL res 816 544 R0
SYMATTR InstName R14
SYMATTR Value 1Meg
SYMBOL EXTRA\\AudioOpamp\\TI\\TL072_TI 912 528 R0
SYMATTR InstName U5
SYMBOL res 1120 512 R90
WINDOW 0 0 56 VBottom 2
WINDOW 3 32 56 VTop 2
SYMATTR InstName R15
SYMATTR Value 22k
SYMBOL EXTRA\\AudioOpamp\\TI\\TL072_TI 1280 512 R0
SYMATTR InstName U6
SYMBOL res 1360 384 R90
WINDOW 0 0 56 VBottom 2
WINDOW 3 32 56 VTop 2
SYMATTR InstName R16
SYMATTR Value 22k
SYMBOL pot 1584 400 R270
WINDOW 3 -1 -3 Right 2
WINDOW 0 -2 27 Right 2
WINDOW 123 -1 60 Right 2
SYMATTR Value R=20k
SYMATTR InstName U1
SYMATTR Value2 W=0.5
SYMBOL res 1536 496 R90
WINDOW 0 0 56 VBottom 2
WINDOW 3 32 56 VTop 2
SYMATTR InstName R3
SYMATTR Value 4.7k
SYMBOL EXTRA\\AudioOpamp\\TI\\TL072_TI 1776 496 R0
SYMATTR InstName U2
SYMBOL res 1824 368 R90
WINDOW 0 0 56 VBottom 2
WINDOW 3 32 56 VTop 2
SYMATTR InstName R4
SYMATTR Value 4.7k
SYMBOL res 1984 480 R90
WINDOW 0 0 56 VBottom 2
WINDOW 3 32 56 VTop 2
SYMATTR InstName R5
SYMATTR Value 2k
SYMBOL res 1632 336 R180
WINDOW 0 36 76 Left 2
WINDOW 3 36 40 Left 2
SYMATTR InstName R6
SYMATTR Value 680
SYMBOL cap 1536 208 R90
WINDOW 0 0 32 VBottom 2
WINDOW 3 32 32 VTop 2
SYMATTR InstName C5
SYMATTR Value 47µ
SYMBOL EXTRA\\AudioOpamp\\TI\\TL072_TI 2080 480 R0
SYMATTR InstName U9
SYMBOL cap 2240 464 R90
WINDOW 0 0 32 VBottom 2
WINDOW 3 32 32 VTop 2
SYMATTR InstName C6
SYMATTR Value 1µ
SYMBOL res 2336 464 R90
WINDOW 0 0 56 VBottom 2
WINDOW 3 32 56 VTop 2
SYMATTR InstName R7
SYMATTR Value 100
SYMBOL res 2352 608 R180
WINDOW 0 36 76 Left 2
WINDOW 3 36 40 Left 2
SYMATTR InstName R8
SYMATTR Value 47k
SYMBOL pot 1584 144 R270
WINDOW 3 -1 -3 Right 2
WINDOW 0 -7 26 Right 2
WINDOW 123 -1 60 Right 2
SYMATTR Value R=20k
SYMATTR InstName U11
SYMATTR Value2 W=0.5
SYMBOL res 1632 80 R180
WINDOW 0 36 76 Left 2
WINDOW 3 36 40 Left 2
SYMATTR InstName R9
SYMATTR Value 680
SYMBOL cap 1536 -48 R90
WINDOW 0 0 32 VBottom 2
WINDOW 3 32 32 VTop 2
SYMATTR InstName C3
SYMATTR Value 68n
SYMBOL res -368 208 R0
SYMATTR InstName R10
SYMATTR Value 100k
SYMBOL res -304 208 R270
WINDOW 0 32 56 VTop 2
WINDOW 3 0 56 VBottom 2
SYMATTR InstName R12
SYMATTR Value 4.7k
SYMBOL EXTRA\\AudioOpamp\\TI\\TL072_TI -240 480 R0
SYMATTR InstName U3
SYMBOL res -176 352 R90
WINDOW 0 0 56 VBottom 2
WINDOW 3 32 56 VTop 2
SYMATTR InstName R13
SYMATTR Value 100k
SYMBOL res 32 352 R90
WINDOW 0 0 82 VBottom 2
WINDOW 3 -29 32 VTop 2
SYMATTR InstName R17
SYMATTR Value 22k
SYMBOL res -32 464 R90
WINDOW 0 0 56 VBottom 2
WINDOW 3 32 56 VTop 2
SYMATTR InstName R18
SYMATTR Value 3.3k
SYMBOL pot 48 464 R90
WINDOW 3 -1 7 Right 2
WINDOW 0 -3 37 Right 2
WINDOW 123 -1 60 Right 2
SYMATTR Value R=50k
SYMATTR InstName U12
SYMATTR Value2 W=0.5
SYMATTR SpiceModel pot_log
SYMBOL EXTRA\\AudioOpamp\\TI\\TL072_TI 128 464 R0
SYMATTR InstName U13
SYMBOL res 208 352 R90
WINDOW 0 0 82 VBottom 2
WINDOW 3 -29 32 VTop 2
SYMATTR InstName R20
SYMATTR Value 47k
SYMBOL cap -64 560 R90
WINDOW 0 0 32 VBottom 2
WINDOW 3 32 32 VTop 2
SYMATTR InstName C4
SYMATTR Value 100n
SYMBOL cap 32 560 R90
WINDOW 0 0 32 VBottom 2
WINDOW 3 32 32 VTop 2
SYMATTR InstName C7
SYMATTR Value 100n
SYMBOL pot 48 704 M270
WINDOW 3 -1 7 Right 2
WINDOW 0 -3 37 Right 2
WINDOW 123 -1 60 Right 2
SYMATTR Value R=50k
SYMATTR InstName U14
SYMATTR Value2 W=0.5
SYMATTR SpiceModel pot_log
SYMBOL res 240 672 R90
WINDOW 0 0 56 VBottom 2
WINDOW 3 32 56 VTop 2
SYMATTR InstName R21
SYMATTR Value 3.3k
SYMBOL res 320 448 R90
WINDOW 0 0 56 VBottom 2
WINDOW 3 32 56 VTop 2
SYMATTR InstName R26
SYMATTR Value 220
SYMBOL res 320 352 R90
WINDOW 0 0 56 VBottom 2
WINDOW 3 32 56 VTop 2
SYMATTR InstName R27
SYMATTR Value 4.7k
SYMBOL pot 336 656 M0
WINDOW 3 -1 7 Right 2
WINDOW 0 -3 37 Right 2
WINDOW 123 -1 60 Right 2
SYMATTR Value R=1k
SYMATTR InstName U15
SYMATTR Value2 W=0.5
SYMBOL res 304 720 R0
SYMATTR InstName R28
SYMATTR Value 1k
SYMBOL cap 304 512 R0
SYMATTR InstName C9
SYMATTR Value 10µ
SYMBOL pot -336 -944 R90
WINDOW 3 -1 -3 Right 2
WINDOW 0 -3 31 Right 2
WINDOW 123 -1 60 Right 2
SYMATTR Value R=20k
SYMATTR InstName U4
SYMATTR Value2 W=0.5
SYMBOL res -384 -816 R0
SYMATTR InstName R11
SYMATTR Value 100k
SYMBOL res -320 -816 R270
WINDOW 0 32 56 VTop 2
WINDOW 3 0 56 VBottom 2
SYMATTR InstName R19
SYMATTR Value 4.7k
SYMBOL EXTRA\\AudioOpamp\\TI\\TL072_TI -256 -544 R0
SYMATTR InstName U8
SYMBOL res -192 -672 R90
WINDOW 0 0 56 VBottom 2
WINDOW 3 32 56 VTop 2
SYMATTR InstName R22
SYMATTR Value 100k
SYMBOL res 16 -672 R90
WINDOW 0 0 82 VBottom 2
WINDOW 3 -29 32 VTop 2
SYMATTR InstName R23
SYMATTR Value 22k
SYMBOL res -48 -560 R90
WINDOW 0 0 56 VBottom 2
WINDOW 3 32 56 VTop 2
SYMATTR InstName R24
SYMATTR Value 27k
SYMBOL pot 32 -560 R90
WINDOW 3 -1 7 Right 2
WINDOW 0 -3 37 Right 2
WINDOW 123 -1 60 Right 2
SYMATTR Value R=50k
SYMATTR InstName U10
SYMATTR Value2 W=0.5
SYMATTR SpiceModel pot_log
SYMBOL EXTRA\\AudioOpamp\\TI\\TL072_TI 112 -560 R0
SYMATTR InstName U16
SYMBOL res 192 -672 R90
WINDOW 0 0 82 VBottom 2
WINDOW 3 -29 32 VTop 2
SYMATTR InstName R25
SYMATTR Value 47k
SYMBOL cap -80 -464 R90
WINDOW 0 0 32 VBottom 2
WINDOW 3 32 32 VTop 2
SYMATTR InstName C10
SYMATTR Value 6.8n
SYMBOL cap 16 -464 R90
WINDOW 0 0 32 VBottom 2
WINDOW 3 32 32 VTop 2
SYMATTR InstName C11
SYMATTR Value 6.8n
SYMBOL pot 32 -320 M270
WINDOW 3 -1 7 Right 2
WINDOW 0 -3 37 Right 2
WINDOW 123 -1 60 Right 2
SYMATTR Value R=50k
SYMATTR InstName U17
SYMATTR Value2 W=0.5
SYMATTR SpiceModel pot_log
SYMBOL res 224 -352 R90
WINDOW 0 0 56 VBottom 2
WINDOW 3 32 56 VTop 2
SYMATTR InstName R29
SYMATTR Value 27k
SYMBOL res 304 -576 R90
WINDOW 0 0 56 VBottom 2
WINDOW 3 32 56 VTop 2
SYMATTR InstName R30
SYMATTR Value 220
SYMBOL res 304 -672 R90
WINDOW 0 0 56 VBottom 2
WINDOW 3 32 56 VTop 2
SYMATTR InstName R31
SYMATTR Value 4.7k
SYMBOL pot 320 -368 M0
WINDOW 3 -1 7 Right 2
WINDOW 0 -3 37 Right 2
WINDOW 123 -1 60 Right 2
SYMATTR Value R=1k
SYMATTR InstName U18
SYMATTR Value2 W=0.5
SYMBOL res 288 -304 R0
SYMATTR InstName R32
SYMATTR Value 1k
SYMBOL cap 288 -512 R0
SYMATTR InstName C12
SYMATTR Value 10µ
SYMBOL pot 800 -944 R90
WINDOW 3 -1 -3 Right 2
WINDOW 0 -3 31 Right 2
WINDOW 123 -1 60 Right 2
SYMATTR Value R=20k
SYMATTR InstName U19
SYMATTR Value2 W=1
SYMBOL res 752 -816 R0
SYMATTR InstName R33
SYMATTR Value 100k
SYMBOL res 816 -816 R270
WINDOW 0 32 56 VTop 2
WINDOW 3 0 56 VBottom 2
SYMATTR InstName R34
SYMATTR Value 4.7k
SYMBOL EXTRA\\AudioOpamp\\TI\\TL072_TI 880 -544 R0
SYMATTR InstName U20
SYMBOL res 944 -672 R90
WINDOW 0 0 56 VBottom 2
WINDOW 3 32 56 VTop 2
SYMATTR InstName R35
SYMATTR Value 100k
SYMBOL res 1152 -672 R90
WINDOW 0 0 82 VBottom 2
WINDOW 3 -29 32 VTop 2
SYMATTR InstName R36
SYMATTR Value 22k
SYMBOL res 1088 -560 R90
WINDOW 0 0 56 VBottom 2
WINDOW 3 32 56 VTop 2
SYMATTR InstName R37
SYMATTR Value 22k
SYMBOL pot 1168 -560 R90
WINDOW 3 -1 7 Right 2
WINDOW 0 -3 37 Right 2
WINDOW 123 -1 60 Right 2
SYMATTR Value R=50k
SYMATTR InstName U21
SYMATTR Value2 W={W}
SYMATTR SpiceModel pot_log
SYMBOL EXTRA\\AudioOpamp\\TI\\TL072_TI 1248 -560 R0
SYMATTR InstName U22
SYMBOL res 1328 -672 R90
WINDOW 0 0 82 VBottom 2
WINDOW 3 -29 32 VTop 2
SYMATTR InstName R38
SYMATTR Value 47k
SYMBOL cap 1056 -464 R90
WINDOW 0 0 32 VBottom 2
WINDOW 3 32 32 VTop 2
SYMATTR InstName C13
SYMATTR Value 3.3n
SYMBOL cap 1152 -464 R90
WINDOW 0 0 32 VBottom 2
WINDOW 3 32 32 VTop 2
SYMATTR InstName C14
SYMATTR Value 3.3n
SYMBOL pot 1168 -320 M270
WINDOW 3 -1 7 Right 2
WINDOW 0 -3 37 Right 2
WINDOW 123 -1 60 Right 2
SYMATTR Value R=50k
SYMATTR InstName U23
SYMATTR Value2 W={W}
SYMATTR SpiceModel pot_log
SYMBOL res 1360 -352 R90
WINDOW 0 0 56 VBottom 2
WINDOW 3 32 56 VTop 2
SYMATTR InstName R39
SYMATTR Value 22k
SYMBOL res 1440 -576 R90
WINDOW 0 0 56 VBottom 2
WINDOW 3 32 56 VTop 2
SYMATTR InstName R40
SYMATTR Value 220
SYMBOL res 1440 -672 R90
WINDOW 0 0 56 VBottom 2
WINDOW 3 32 56 VTop 2
SYMATTR InstName R41
SYMATTR Value 4.7k
SYMBOL pot 1456 -368 M0
WINDOW 3 -1 7 Right 2
WINDOW 0 -3 37 Right 2
WINDOW 123 -1 60 Right 2
SYMATTR Value R=1k
SYMATTR InstName U24
SYMATTR Value2 W=0.5
SYMBOL res 1424 -304 R0
SYMATTR InstName R42
SYMATTR Value 1k
SYMBOL cap 1424 -512 R0
SYMATTR InstName C15
SYMATTR Value 10µ
TEXT 992 24 Left 2 !;tran 0 20m 10m
TEXT 992 56 Left 2 !.ac dec 500 10 10000
TEXT 992 88 Left 2 !.step param W 0 1 0.2
TEXT 992 120 Left 2 !;.step param W list 0 1
