Version 4
SHEET 1 2868 996
WIRE 1616 -32 1536 -32
WIRE 1616 -16 1616 -32
WIRE 704 80 672 80
WIRE 800 80 704 80
WIRE 880 80 800 80
WIRE 1616 96 1616 64
WIRE 704 112 704 80
WIRE 880 112 880 80
WIRE 1584 128 1552 128
WIRE 1696 128 1648 128
WIRE 800 144 800 80
WIRE 624 208 592 208
WIRE 704 208 704 192
WIRE 704 208 624 208
WIRE 624 224 624 208
WIRE 704 224 704 208
WIRE 1616 224 1536 224
WIRE 1616 240 1616 224
WIRE 176 352 112 352
WIRE 288 352 240 352
WIRE 1616 352 1616 320
WIRE 1552 384 1552 128
WIRE 1584 384 1552 384
WIRE 1696 384 1696 128
WIRE 1696 384 1648 384
WIRE 1728 384 1696 384
WIRE 1856 384 1808 384
WIRE 2144 384 2016 384
WIRE 1200 400 1200 288
WIRE 1200 400 1136 400
WIRE 1264 400 1200 400
WIRE 1408 400 1408 288
WIRE 1408 400 1344 400
WIRE 208 416 208 384
WIRE 976 448 976 368
WIRE 976 448 832 448
WIRE 2016 464 2016 384
WIRE 2048 464 2016 464
WIRE -432 480 -432 416
WIRE 1696 480 1696 384
WIRE 1744 480 1696 480
WIRE 2144 480 2144 384
WIRE 2144 480 2112 480
WIRE 2176 480 2144 480
WIRE 2336 480 2320 480
WIRE 2384 480 2336 480
WIRE 1200 496 1200 400
WIRE 1248 496 1200 496
WIRE 1856 496 1856 384
WIRE 1856 496 1808 496
WIRE 1888 496 1856 496
WIRE 2048 496 1968 496
WIRE 832 512 832 448
WIRE 880 512 832 512
WIRE 1408 512 1408 400
WIRE 1408 512 1312 512
WIRE 1440 512 1408 512
WIRE 1552 512 1552 384
WIRE 1552 512 1520 512
WIRE 1744 512 1552 512
WIRE 2336 512 2336 480
WIRE 208 528 208 496
WIRE 976 528 976 448
WIRE 976 528 944 528
WIRE 1024 528 976 528
WIRE 1136 528 1136 400
WIRE 1136 528 1104 528
WIRE 1248 528 1216 528
WIRE 656 544 544 544
WIRE 832 544 720 544
WIRE 880 544 832 544
WIRE 176 560 160 560
WIRE 832 560 832 544
WIRE 1216 576 1216 528
WIRE 544 608 544 544
WIRE -432 624 -432 560
WIRE -400 624 -432 624
WIRE -288 624 -320 624
WIRE 32 624 -288 624
WIRE 160 640 160 560
WIRE 208 640 208 592
WIRE 208 640 160 640
WIRE -80 688 -128 688
WIRE 32 688 32 624
WIRE 32 688 -16 688
WIRE 272 688 32 688
WIRE -288 704 -288 624
WIRE -240 704 -288 704
WIRE 416 704 336 704
WIRE -128 720 -128 688
WIRE -128 720 -176 720
WIRE -16 720 -128 720
WIRE 0 720 -16 720
WIRE 96 720 64 720
WIRE 208 720 208 640
WIRE 208 720 176 720
WIRE 272 720 208 720
WIRE -432 736 -432 624
WIRE -400 736 -432 736
WIRE -288 736 -320 736
WIRE -240 736 -288 736
WIRE -288 752 -288 736
WIRE 208 752 208 720
WIRE -16 768 -16 720
WIRE 32 768 32 752
WIRE 32 768 -16 768
WIRE -432 880 -432 736
WIRE 416 880 416 704
WIRE 416 880 -432 880
FLAG 544 688 0
FLAG 800 224 0
FLAG 672 80 V+
FLAG 592 208 Vref
FLAG 880 176 0
FLAG 704 304 0
FLAG 624 288 0
FLAG 288 352 EqIn
FLAG 112 352 EqOut
FLAG 832 640 Vref
FLAG 912 560 0
FLAG 912 496 V+
FLAG 1280 544 0
FLAG 1280 480 V+
FLAG 976 368 EqIn
FLAG 1200 288 EqSmth
FLAG 1408 288 EqOut
FLAG 1216 576 Vref
FLAG 304 736 0
FLAG 304 672 V+
FLAG -208 752 0
FLAG -208 688 V+
FLAG -288 832 Vref
FLAG -432 416 EqSmth
FLAG 1776 528 0
FLAG 1776 464 V+
FLAG 1472 224 0
FLAG 2080 512 0
FLAG 2080 448 V+
FLAG 2336 592 0
FLAG 1472 -32 0
FLAG 208 816 0
SYMBOL voltage 544 592 R0
WINDOW 123 24 124 Left 2
WINDOW 39 0 0 Left 2
SYMATTR Value2 AC 1
SYMATTR InstName V1
SYMATTR Value SINE(0 1 1000)
SYMBOL voltage 800 128 R0
WINDOW 123 0 0 Left 2
WINDOW 39 0 0 Left 2
SYMATTR InstName V2
SYMATTR Value 9
SYMBOL cap 864 112 R0
SYMATTR InstName C1
SYMATTR Value 220µ
SYMBOL res 688 96 R0
SYMATTR InstName R1
SYMATTR Value 10k
SYMBOL res 688 208 R0
SYMATTR InstName R2
SYMATTR Value 10k
SYMBOL cap 608 224 R0
SYMATTR InstName C2
SYMATTR Value 220µ
SYMBOL pot 240 336 R90
WINDOW 3 -1 -3 Right 2
WINDOW 0 -2 13 Right 2
WINDOW 123 -1 60 Right 2
SYMATTR Value R=50k
SYMATTR InstName U7
SYMATTR Value2 W=1
SYMBOL cap 720 528 R90
WINDOW 0 0 32 VBottom 2
WINDOW 3 32 32 VTop 2
SYMATTR InstName C8
SYMATTR Value 100n
SYMBOL res 816 544 R0
SYMATTR InstName R14
SYMATTR Value 1Meg
SYMBOL EXTRA\\AudioOpamp\\TI\\TL072_TI 912 528 R0
SYMATTR InstName U5
SYMBOL res 1120 512 R90
WINDOW 0 0 56 VBottom 2
WINDOW 3 32 56 VTop 2
SYMATTR InstName R15
SYMATTR Value 47k
SYMBOL EXTRA\\AudioOpamp\\TI\\TL072_TI 1280 512 R0
SYMATTR InstName U6
SYMBOL res 1360 384 R90
WINDOW 0 0 56 VBottom 2
WINDOW 3 32 56 VTop 2
SYMATTR InstName R16
SYMATTR Value 47k
SYMBOL res 192 400 R0
SYMATTR InstName R18
SYMATTR Value 10k
SYMBOL pot 224 592 R180
WINDOW 3 -1 -3 Right 2
WINDOW 0 -3 28 Right 2
WINDOW 123 -1 60 Right 2
SYMATTR Value R=100k
SYMATTR InstName U3
SYMATTR Value2 W=0.5
SYMATTR SpiceModel pot_log
SYMBOL EXTRA\\AudioOpamp\\TI\\TL072_TI 304 704 R0
SYMATTR InstName U4
SYMBOL cap 192 752 R0
SYMATTR InstName C9
SYMATTR Value 15n
SYMBOL res 192 704 R90
WINDOW 0 0 56 VBottom 2
WINDOW 3 32 56 VTop 2
SYMATTR InstName R19
SYMATTR Value 2.2k
SYMBOL pot 0 704 M90
WINDOW 3 -1 -3 Right 2
WINDOW 0 -5 32 Right 2
WINDOW 123 -1 60 Right 2
SYMATTR Value R=50k
SYMATTR InstName U8
SYMATTR Value2 W=0.5
SYMATTR SpiceModel pot_log
SYMBOL cap -16 672 R90
WINDOW 0 0 32 VBottom 2
WINDOW 3 32 32 VTop 2
SYMATTR InstName C10
SYMATTR Value 15n
SYMBOL EXTRA\\AudioOpamp\\TI\\TL072_TI -208 720 R0
SYMATTR InstName U10
SYMBOL res -304 736 R0
SYMATTR InstName R22
SYMATTR Value 10k
SYMBOL res -304 720 R90
WINDOW 0 0 56 VBottom 2
WINDOW 3 32 56 VTop 2
SYMATTR InstName R23
SYMATTR Value 10k
SYMBOL res -304 608 R90
WINDOW 0 0 56 VBottom 2
WINDOW 3 32 56 VTop 2
SYMATTR InstName R24
SYMATTR Value 10k
SYMBOL res -416 576 R180
WINDOW 0 36 76 Left 2
WINDOW 3 36 40 Left 2
SYMATTR InstName R25
SYMATTR Value 22k
SYMBOL pot 1584 400 R270
WINDOW 3 -1 -3 Right 2
WINDOW 0 -2 27 Right 2
WINDOW 123 -1 60 Right 2
SYMATTR Value R=20k
SYMATTR InstName U1
SYMATTR Value2 W=0.5
SYMBOL res 1536 496 R90
WINDOW 0 0 56 VBottom 2
WINDOW 3 32 56 VTop 2
SYMATTR InstName R3
SYMATTR Value 4.7k
SYMBOL EXTRA\\AudioOpamp\\TI\\TL072_TI 1776 496 R0
SYMATTR InstName U2
SYMBOL res 1824 368 R90
WINDOW 0 0 56 VBottom 2
WINDOW 3 32 56 VTop 2
SYMATTR InstName R4
SYMATTR Value 4.7k
SYMBOL res 1984 480 R90
WINDOW 0 0 56 VBottom 2
WINDOW 3 32 56 VTop 2
SYMATTR InstName R5
SYMATTR Value 2k
SYMBOL res 1632 336 R180
WINDOW 0 36 76 Left 2
WINDOW 3 36 40 Left 2
SYMATTR InstName R6
SYMATTR Value 680
SYMBOL cap 1536 208 R90
WINDOW 0 0 32 VBottom 2
WINDOW 3 32 32 VTop 2
SYMATTR InstName C5
SYMATTR Value 47µ
SYMBOL EXTRA\\AudioOpamp\\TI\\TL072_TI 2080 480 R0
SYMATTR InstName U9
SYMBOL cap 2240 464 R90
WINDOW 0 0 32 VBottom 2
WINDOW 3 32 32 VTop 2
SYMATTR InstName C6
SYMATTR Value 1µ
SYMBOL res 2336 464 R90
WINDOW 0 0 56 VBottom 2
WINDOW 3 32 56 VTop 2
SYMATTR InstName R7
SYMATTR Value 100
SYMBOL res 2352 608 R180
WINDOW 0 36 76 Left 2
WINDOW 3 36 40 Left 2
SYMATTR InstName R8
SYMATTR Value 47k
SYMBOL pot 1584 144 R270
WINDOW 3 -1 -3 Right 2
WINDOW 0 -7 26 Right 2
WINDOW 123 -1 60 Right 2
SYMATTR Value R=20k
SYMATTR InstName U11
SYMATTR Value2 W=0.5
SYMBOL res 1632 80 R180
WINDOW 0 36 76 Left 2
WINDOW 3 36 40 Left 2
SYMATTR InstName R9
SYMATTR Value 680
SYMBOL cap 1536 -48 R90
WINDOW 0 0 32 VBottom 2
WINDOW 3 32 32 VTop 2
SYMATTR InstName C3
SYMATTR Value 68n
TEXT 384 400 Left 2 !;tran 0 20m 10m
TEXT 384 432 Left 2 !.ac dec 500 10 10000
TEXT 384 472 Left 2 !;.step param W 0 1 0.1
